2
Lattice="2.9616328254994926 0.0 0.0 0.0 2.9616328254994926 0.0 0.0 0.0 4.2687387811300255" Properties=species:S:1:pos:R:3:tags:I:1 spacegroup="P 1" unit_cell=conventional n_minim_iter=1 energy=-1703.8581038957013 free_energy=-1703.8581038957013 pbc="T T T"
Ti       1.48081641       1.48081641       2.13436940        0
Al       0.00000000       0.00000000       0.00000001        1
