2
Lattice="2.82410522 0.0 0.0 0.0 2.82410522 0.0 0.0 0.0 4.06471199" Properties=species:S:1:pos:R:3:tags:I:1 spacegroup="P 1" unit_cell=conventional n_minim_iter=1 energy=-1704.2537078702921 free_energy=-1704.2537078702921 pbc="T T T"
Ti       1.41205261       1.41205261       2.03235600        0
Al       0.00000000       0.00000000       0.00000000        1
2
Lattice="2.767913531040009 0.0 0.0 0.0 2.767913531040009 0.0 0.0 0.0 3.989522175414266" Properties=species:S:1:pos:R:3:tags:I:1 spacegroup="P 1" unit_cell=conventional n_minim_iter=2 stress="-6.651555312679203e-05 1.1287806104308335e-18 -3.979069349845305e-17 1.1287806104308335e-18 -6.65155531267339e-05 -2.2702010816891113e-19 -3.979069349845305e-17 -2.2702010816891113e-19 -0.0014643572489352412" pbc="T T T"
Ti       1.38395677       1.38395677       1.99476109        0
Al       0.00000000       0.00000000       0.00000000        1
