2
Lattice="2.7907898868899528 0.0 0.0 0.0 2.7907898868899528 0.0 0.0 0.0 4.022494928331777" Properties=species:S:1:pos:R:3:tags:I:1 spacegroup="P 1" unit_cell=conventional n_minim_iter=2 pbc="T T T"
Ti       1.39539494       1.39539494       2.01124747        0
Al       0.00000000       0.00000000       0.00000000        1
