4
Lattice="4.279949922260316 0.0 0.0 0.0 4.279949922260316 0.0 0.0 0.0 4.279949922260316" Properties=species:S:1:pos:R:3 n_minim_iter=1 stress="0.06831188328006593 1.8393578233610553e-18 1.2405300613114658e-17 1.8393578233610553e-18 0.06831188328006593 -2.566747488349191e-17 1.2405300613114658e-17 -2.566747488349191e-17 0.068311883280066" pbc="T T T"
Al       0.00000000       0.00000000       0.00000000
Al       2.13997496       2.13997496       0.00000000
Al       2.13997496       0.00000000       2.13997496
Al       0.00000000       2.13997496       2.13997496
