4
Lattice="3.825862365544777 0.0 0.0 0.0 3.825862365544777 0.0 0.0 0.0 3.825862365544777" Properties=species:S:1:pos:R:3 n_minim_iter=1 stress="-0.0614572443254593 -1.1267521988114408e-17 2.03478014943752e-17 -1.1267521988114408e-17 -0.06145724432545925 2.5580395007079883e-17 2.03478014943752e-17 2.5580395007079883e-17 -0.06145724432545935" pbc="T T T"
Al       0.00000000       0.00000000       0.00000000
Al       1.91293118       1.91293118       0.00000000
Al       1.91293118       0.00000000       1.91293118
Al       0.00000000       1.91293118       1.91293118
