4
Lattice="3.713271066890223 0.0 0.0 0.0 3.713271066890223 0.0 0.0 0.0 3.713271066890223" Properties=species:S:1:pos:R:3 n_minim_iter=1 stress="-0.14164917003413297 1.7347344695766222e-17 1.89214958651788e-17 1.7347344695766222e-17 -0.14164917003413297 1.050834207896699e-18 1.89214958651788e-17 1.050834207896699e-18 -0.14164917003413297" pbc="T T T"
Al       0.00000000       0.00000000       0.00000000
Al       1.85663553       1.85663553       0.00000000
Al       1.85663553       0.00000000       1.85663553
Al       0.00000000       1.85663553       1.85663553
