4
Lattice="3.9321902899662327 0.0 0.0 0.0 3.9321902899662327 0.0 0.0 0.0 3.9321902899662327" Properties=species:S:1:pos:R:3 n_minim_iter=1 stress="-0.007437116960973202 4.365240358193683e-18 5.884264087162177e-18 4.365240358193683e-18 -0.007437116960973219 1.269065756430005e-17 5.884264087162177e-18 1.269065756430005e-17 -0.00743711696097317" pbc="T T T"
Al       0.00000000       0.00000000       0.00000000
Al       1.96609514       1.96609514       0.00000000
Al       1.96609514       0.00000000       1.96609514
Al       0.00000000       1.96609514       1.96609514
