4
Lattice="4.129120461825467 0.0 0.0 0.0 4.129120461825467 0.0 0.0 0.0 4.129120461825467" Properties=species:S:1:pos:R:3 n_minim_iter=1 stress="0.037380140012223034 1.6048040905010583e-17 2.242853509194494e-17 1.6048040905010583e-17 0.037380140012223034 2.4821630926148262e-17 2.242853509194494e-17 2.4821630926148262e-17 0.0373801400122231" pbc="T T T"
Al       0.00000000       0.00000000       0.00000000
Al       2.06456023       2.06456023       0.00000000
Al       2.06456023       0.00000000       2.06456023
Al       0.00000000       2.06456023       2.06456023
