4
Lattice="4.033059350436209 0.0 0.0 0.0 4.033059350436209 0.0 0.0 0.0 4.033059350436209" Properties=species:S:1:pos:R:3 n_minim_iter=1 stress="0.0177519981429308 -3.5313553981694946e-18 2.7088928153505882e-18 -3.5313553981694946e-18 0.017751998142930818 6.624521380350651e-18 2.7088928153505882e-18 6.624521380350651e-18 0.017751998142930825" pbc="T T T"
Al       0.00000000       0.00000000       0.00000000
Al       2.01652968       2.01652968       0.00000000
Al       2.01652968       0.00000000       2.01652968
Al       0.00000000       2.01652968       2.01652968
