2
Lattice="2.6225573842752263 1.4765357962934349e-67 2.478062362460968e-51 -1.769022849230607e-67 2.6225573842752263 3.095418792138496e-17 -3.5711288693956435e-51 -4.460799525843122e-17 3.779360248759478" Properties=species:S:1:pos:R:3:tags:I:1 spacegroup="P 1" unit_cell=conventional n_minim_iter=1 energy=-1703.9401958691597 free_energy=-1703.9401958691597 pbc="T T T"
Ti       1.31127869       1.31127869       1.88968013        0
Al       0.00000000       0.00000000       0.00000000        1
