18
Lattice="5.640827280454324 1.0771738498389778e-06 1.990668041704325e-14 2.8204119440597553 8.882306212333102 -1.0432851071246634 2.8204133611751487 1.461309758526397 6.651214761213586" Properties=species:S:1:pos:R:3 unique_starting_index=182 config_type=initial n_minim_iter=1 energy=-2929.52295757249 free_energy=-2929.52295757249 pbc="T T T"
Si       3.07250770       1.03792177       0.58707833
Si       5.89292075       4.13388736       2.21688651
Si       8.20914489       9.30569525       5.02085134
Si       5.38873184       6.20972966       3.39104315
Si       4.15349720       8.88213719       3.22939811
Si       6.97391127       6.63328725       5.18249638
Si       7.12815539       1.46147984       2.37853156
Si       4.30774132       3.71032977       0.42543328
Si       2.66310684       4.08393050       2.14356878
Si      -0.15730623       1.08787740       0.66039606
Si       8.61854575       6.25968653       3.46436088
Si      11.43895882       9.25573962       4.94753361
Si       4.23324942       3.01015690       3.62696284
Si       1.41283594       2.16165161      -0.82299801
Si       7.04840317       7.33346013       1.98096682
Si       9.86881665       8.18196542       6.43092767
Si       4.23062032       0.73065541       3.32560738
Si       1.41020597       4.44115310      -0.52164255
18
Lattice="5.638367271868941 1.0767040856719374e-06 1.9570506636525714e-14 2.819181957948656 8.787094821320268 -1.0396852689270448 2.8191833589678352 1.4503892769948088 6.6686509664495235" Properties=species:S:1:pos:R:3 unique_starting_index=182 config_type=initial n_minim_iter=2 stress="-0.0024460284893322885 2.0602675271314293e-10 1.1539975324950995e-10 2.0602675271314293e-10 -0.0035249273868312695 -0.0006043135962872011 1.1539975324950995e-10 -0.0006043135962872011 -0.0018941988641036386" pbc="T T T"
Si       3.07067286       1.02834636       0.58810232
Si       5.88985591       4.09039684       2.22638054
Si       8.20605974       9.20913879       5.04086339
Si       5.38687668       6.14708832       3.40258517
Si       4.15125657       8.78952356       3.24329850
Si       6.97044063       6.56670308       5.20015005
Si       7.12547603       1.44796160       2.38566721
Si       4.30629197       3.67078207       0.42881565
Si       2.66043629       4.04252314       2.15422516
Si      -0.15874678       1.07621882       0.66025770
Si       8.61629631       6.19496201       3.47474055
Si      11.43547938       9.16126633       4.96870801
Si       4.23210956       2.98148988       3.63685091
Si       1.41292609       2.13725269      -0.82236805
Si       7.04462303       7.25599527       1.99211480
Si       9.86380651       8.10023247       6.45133375
Si       4.22877532       0.72519517       3.33432549
Si       1.40959098       4.39354740      -0.51984263
18
Lattice="5.667654522470486 1.0822967864309797e-06 1.9173114652354502e-14 2.8338255854122147 8.775768972874257 -1.0289658614555224 2.8338269820686834 1.461909598147229 6.7142573672414265" Properties=species:S:1:pos:R:3 unique_starting_index=182 config_type=initial n_minim_iter=3 stress="0.00518201743535332 1.2411841538898223e-09 -1.4002348448280482e-10 1.2411841538898223e-09 -0.0013176810213039703 0.0007332587187801082 -1.4002348448280482e-10 0.0007332587187801082 0.005842961053905699" pbc="T T T"
Si       3.08541498       1.03121532       0.59160528
Si       5.91924166       4.08762512       2.25104048
Si       8.24989211       9.20646431       5.09368623
Si       5.41606543       6.15005451       3.43425103
Si       4.17188862       8.78569293       3.28126772
Si       7.00571631       6.57082542       5.24666955
Si       7.16341847       1.45198670       2.40402379
Si       4.32959079       3.66685422       0.43862197
Si       2.67088080       4.04360583       2.18160671
Si      -0.16294589       1.07523338       0.66103905
Si       8.66442629       6.19407381       3.50368481
Si      11.49825299       9.16244626       5.02425246
Si       4.25573084       2.98819053       3.66410055
Si       1.42190374       2.13064927      -0.82145479
Si       7.07957625       7.24948910       2.02119096
Si       9.91340335       8.10703036       6.50674631
Si       4.25074075       0.73095533       3.35712869
Si       1.41691280       4.38788448      -0.51448293
18
Lattice="5.637579316448171 1.076553616947093e-06 1.8934603715761765e-14 2.818787978255577 8.79747757233391 -0.9896230004272032 2.818789373225554 1.4924498426243007 6.693042661592879" Properties=species:S:1:pos:R:3 unique_starting_index=182 config_type=initial n_minim_iter=4 stress="-0.0034028956367053442 -6.69750336028046e-10 -1.1042082489885634e-09 -6.69750336028046e-10 0.00010437915600055283 0.005782397306166519 -1.1042082489885634e-09 0.005782397306166519 0.001495134582428585" pbc="T T T"
Si       3.06241775       1.05137747       0.58256824
Si       5.88120683       4.09358738       2.26914160
Si       8.21273892       9.23855100       5.12085143
Si       5.39394984       6.19634109       3.43427807
Si       4.14535554       8.82006451       3.30427916
Si       6.96414562       6.61482710       5.25085034
Si       7.12980113       1.46986396       2.39914051
Si       4.31101106       3.67510137       0.45256933
Si       2.64041934       4.06931648       2.21646244
Si      -0.17836974       1.07564714       0.63524740
Si       8.63473733       6.22061199       3.48695723
Si      11.45352642       9.21428133       5.06817227
Si       4.24137676       3.02649680       3.65280597
Si       1.42258728       2.11846743      -0.80109613
Si       7.03377991       7.26343167       2.05061370
Si       9.85256940       8.17146104       6.50451580
Si       4.22818435       0.74622545       3.34652133
Si       1.40939399       4.39873878      -0.49481150
18
Lattice="5.676199972967216 1.0839286264665193e-06 1.8590701867012134e-14 2.838098303295805 8.814336014663256 -1.1119493971715921 2.838099719934543 1.3958356751149483 6.626739733829638" Properties=species:S:1:pos:R:3 unique_starting_index=182 config_type=initial n_minim_iter=5 stress="0.0009631023292111736 4.2200478299612835e-10 -3.4704401822678354e-11 4.2200478299612835e-10 -0.001246807346797604 0.0001817352160380269 -3.4704401822678354e-11 0.0001817352160380269 -0.0006605173091390824" pbc="T T T"
Si       3.07747014       1.05517583       0.55410976
Si       5.91556955       4.04991117       2.20328542
Si       8.27492786       9.15499692       4.96068059
Si       5.43682845       6.16026158       3.31150493
Si       4.17083620       8.77159177       3.15532714
Si       7.00893661       6.54366626       5.11685837
Si       7.18156180       1.43858099       2.35946320
Si       4.34346139       3.66650650       0.39793198
Si       2.64560156       4.04259979       2.16424003
Si      -0.19249786       1.06248596       0.59315515
Si       8.70679645       6.16757296       3.35055032
Si      11.54489586       9.14768679       4.92163520
Si       4.27723140       2.98583168       3.57910272
Si       1.43913158       2.11925469      -0.82170755
Si       7.07516660       7.22434107       1.93568762
Si       9.91326642       8.09091806       6.33649789
Si       4.25714985       0.69791837       3.31336987
Si       1.41904915       4.40716800      -0.55597469
18
Lattice="5.654194868134467 1.0797265258831538e-06 1.8455541470040195e-14 2.8270957463218904 8.838202442936227 -1.1398918324580782 2.827097170344953 1.3810326698705733 6.645421208670794" Properties=species:S:1:pos:R:3 unique_starting_index=182 config_type=initial n_minim_iter=6 stress="-0.0010666626802227203 -2.508386174270533e-10 1.0628525764880988e-10 -2.508386174270533e-10 0.0002469002275462616 -0.0005565840616832995 1.0628525764880988e-10 -0.0005565840616832995 0.00122829490508449" pbc="T T T"
Si       3.06457679       1.05883843       0.55013448
Si       5.89167366       4.05078028       2.20263022
Si       8.24381100       9.16039774       4.95539491
Si       5.41671413       6.16845590       3.30289917
Si       4.15627430       8.78483192       3.14275831
Si       6.98337217       6.54402124       5.11553576
Si       7.15211349       1.43440425       2.36277108
Si       4.32501562       3.67521494       0.38999362
Si       2.63436180       4.04569429       2.16470637
Si      -0.19273507       1.06392317       0.58805832
Si       8.67402599       6.17354188       3.34082301
Si      11.50112286       9.15531300       4.91747106
Si       4.26124921       2.98349135       3.58242139
Si       1.43415194       2.12612673      -0.82965669
Si       7.04713858       7.23574482       1.92310800
Si       9.87423585       8.09310944       6.33518608
Si       4.24064602       0.69051686       3.32271061
Si       1.41354788       4.41910121      -0.56994591
18
Lattice="5.6535057421921 1.079594929196229e-06 1.8628356729831445e-14 2.8267511680966226 8.918083375654206 -1.1690938935441961 2.8267526098685125 1.3679684751183125 6.608478541568108" Properties=species:S:1:pos:R:3 unique_starting_index=182 config_type=initial n_minim_iter=7 stress="5.149853132513733e-05 -1.1266398215976592e-09 -1.0749528670802968e-10 -1.1266398215976592e-09 0.005951361782247478 0.0005629197614610663 -1.0749528670802968e-10 0.0005629197614610663 -0.0014698380731443918" pbc="T T T"
Si       3.05649458       1.08401828       0.52019028
Si       5.88324688       4.05900879       2.19950205
Si       8.25051495       9.20203463       4.91919438
Si       5.42376264       6.22704412       3.23988260
Si       4.17298521       8.86339156       3.09773040
Si       6.99973852       6.56568671       5.06134658
Si       7.13402431       1.42266135       2.34165425
Si       4.30727100       3.72036620       0.37803808
Si       2.63454530       4.06437079       2.16621836
Si      -0.19220700       1.07865504       0.55347397
Si       8.67246422       6.22168212       3.27316630
Si      11.49921652       9.20739787       4.88591068
Si       4.26182369       2.99244766       3.55312614
Si       1.43507098       2.15057879      -0.83343381
Si       7.04518583       7.29360525       1.88625852
Si       9.87193854       8.13547412       6.27281846
Si       4.24012918       0.68398477       3.30423927
Si       1.41337559       4.45904168      -0.58454694
18
Lattice="5.6367836336712935 1.0764016698275273e-06 1.8562099807539244e-14 2.8183901207512667 8.881871392824895 -1.1922046345113166 2.8183915592759554 1.3487610906915781 6.643009426535021" Properties=species:S:1:pos:R:3 unique_starting_index=182 config_type=initial n_minim_iter=8 stress="-0.0001244808794942361 3.533020623554741e-11 3.329525180672902e-11 3.533020623554741e-11 -0.00030949749663090876 -0.00017435541523664477 3.329525180672902e-11 -0.00017435541523664477 0.00025150235542375707" pbc="T T T"
Si       3.04599596       1.08653164       0.50486322
Si       5.86438721       4.02878574       2.22053919
Si       8.22756936       9.14410190       4.94594158
Si       5.40917811       6.20184780       3.23026561
Si       4.18265047       8.83950248       3.10326613
Si       7.00104274       6.50644675       5.07294106
Si       7.09091484       1.39113106       2.34753867
Si       4.27252258       3.72418679       0.37786374
Si       2.63665605       4.03066925       2.18306107
Si      -0.18173521       1.08464690       0.54234134
Si       8.63690927       6.19996429       3.26774373
Si      11.45530053       9.14598664       4.90846346
Si       4.24313796       2.95738001       3.57470069
Si       1.42474630       2.15793675      -0.84929829
Si       7.03042736       7.27325352       1.87610411
Si       9.84881902       8.07269679       6.30010309
Si       4.22758760       0.67438107       3.32150472
Si       1.40919506       4.44093569      -0.59610231
18
Lattice="5.642498444282857 1.077492971012027e-06 1.8524890929472805e-14 2.821247528022251 8.871580230334578 -1.1808683819107797 2.8212489633456217 1.355234244828111 6.6402635325145445" Properties=species:S:1:pos:R:3 unique_starting_index=182 config_type=initial n_minim_iter=9 stress="0.0005736804148192309 2.4302664672257993e-10 2.2200404602059175e-11 2.4302664672257993e-10 -0.0006989784665252279 -0.00011625533250417308 2.2200404602059175e-11 -0.00011625533250417308 -0.0008698265390394391" pbc="T T T"
Si       3.05083752       1.09101956       0.50390190
Si       5.87208618       4.02238882       2.22579569
Si       8.23415742       9.13579597       4.95549326
Si       5.41290876       6.20442671       3.23359947
Si       4.19337638       8.84559150       3.12023931
Si       7.01462606       6.49463071       5.06885342
Si       7.09161856       1.38122403       2.33915585
Si       4.27036888       3.73218482       0.39054174
Si       2.63048052       4.02748229       2.19984041
Si      -0.19076814       1.08592486       0.52985717
Si       8.65451442       6.19933324       3.25955474
Si      11.47576308       9.14089067       4.92953799
Si       4.24450573       2.95823675       3.58413863
Si       1.42325666       2.15517101      -0.85444105
Si       7.04048921       7.26857878       1.87525653
Si       9.86173828       8.07164452       6.31383620
Si       4.23187371       0.67761765       3.32013177
Si       1.41062377       4.43579010      -0.59043419
18
Lattice="5.635557586235993 1.0761675428220285e-06 1.835859386315389e-14 2.8177770987561055 8.87285124515714 -1.1743880574483636 2.8177785330253773 1.3620252450857129 6.654986612074699" Properties=species:S:1:pos:R:3 unique_starting_index=182 config_type=initial n_minim_iter=10 stress="6.266021665711747e-05 2.616500585721301e-11 -4.705620109102716e-12 2.616500585721301e-11 -7.436094738159867e-05 2.4641940181090096e-05 -4.705620109102716e-12 2.4641940181090096e-05 -0.00020323493925481168" pbc="T T T"
Si       3.04754511       1.09351510       0.50591683
Si       5.86532334       4.02392429       2.23438245
Si       8.22356811       9.14136244       4.97468173
Si       5.40578988       6.21095326       3.24621611
Si       4.19312667       8.85897368       3.14206184
Si       7.01090591       6.49334156       5.07883600
Si       7.07798655       1.37590386       2.33853672
Si       4.26020731       3.74153599       0.40176257
Si       2.62357063       4.02909753       2.21446741
Si      -0.19420760       1.08834062       0.52583188
Si       8.64754259       6.20578002       3.26613115
Si      11.46532082       9.14653692       4.95476669
Si       4.23676417       2.96111544       3.59837679
Si       1.41898553       2.15632332      -0.85807751
Si       7.03434905       7.27376210       1.88222177
Si       9.85212769       8.07855422       6.33867607
Si       4.22666806       0.68101315       3.32749331
Si       1.40888855       4.43642561      -0.58719402
18
Lattice="5.628881563365445 1.0748926880215939e-06 1.8121922362255218e-14 2.814439087557983 8.871609357039578 -1.1643135931537496 2.814440519638825 1.372243485066919 6.679494670750217" Properties=species:S:1:pos:R:3 unique_starting_index=182 config_type=initial n_minim_iter=11 stress="-0.000485082634106452 -2.1686936583915458e-10 -4.7624623142911244e-11 -2.1686936583915458e-10 0.0006505930825721176 0.0002493938681405687 -4.7624623142911244e-11 0.0002493938681405687 0.0008603090765032668" pbc="T T T"
Si       3.04181162       1.09617171       0.51064230
Si       5.85625185       4.02575585       2.24694825
Si       8.21594955       9.14768218       5.00453879
Si       5.40150933       6.21809805       3.26823284
Si       4.19783626       8.88016746       3.18226006
Si       7.01227750       6.48561231       5.09051157
Si       7.05992491       1.36368643       2.33292103
Si       4.24548367       3.75824159       0.42466952
Si       2.61469596       4.03030474       2.23868372
Si      -0.19974426       1.09162158       0.51890683
Si       8.64306521       6.21354915       3.27649737
Si      11.45750543       9.15223232       4.99627425
Si       4.22729978       2.96506924       3.61875549
Si       1.41285915       2.15685770      -0.86116494
Si       7.03046140       7.27878465       1.89642560
Si       9.84490202       8.08699620       6.37634603
Si       4.22166104       0.68612227       3.33974734
Si       1.40721955       4.43580467      -0.58215679
18
Lattice="5.639322089051216 1.0768864138189294e-06 1.8015213135752172e-14 2.8196593510609476 8.868152726448542 -1.171762805369341 2.8196607838979624 1.364827001615097 6.668684620876551" Properties=species:S:1:pos:R:3 unique_starting_index=182 config_type=initial n_minim_iter=12 stress="0.0001407056560471019 3.112705892782538e-11 3.004110242296641e-12 3.112705892782538e-11 -2.2299519037148304e-05 -1.5733658334527334e-05 3.004110242296641e-12 -1.5733658334527334e-05 -0.00014581903079971935" pbc="T T T"
Si       3.04241885       1.09288391       0.51071628
Si       5.86207933       4.02360709       2.23774464
Si       8.23622338       9.14009687       4.98620555
Si       5.41656289       6.20937369       3.25917718
Si       4.20743716       8.87541228       3.17353993
Si       7.02709866       6.47405782       5.07184280
Si       7.07120507       1.35756850       2.32338189
Si       4.25154356       3.75892296       0.42507902
Si       2.61985718       4.02715738       2.23058209
Si      -0.19980330       1.08933239       0.51787883
Si       8.65878505       6.20582341       3.26633974
Si      11.47844553       9.14364840       4.97904299
Si       4.23579795       2.96221521       3.60447112
Si       1.41613706       2.15427517      -0.85601020
Si       7.04284428       7.27076557       1.89245071
Si       9.86250517       8.07870561       6.35293202
Si       4.22949144       0.68241403       3.33434231
Si       1.40982968       4.43407635      -0.58588140
18
Lattice="5.635543055377612 1.0761647688088536e-06 1.7829571708449274e-14 2.817769834715975 8.865577168777389 -1.1732863529407982 2.8177712672044666 1.36407655629797 6.6756160399090545" Properties=species:S:1:pos:R:3 unique_starting_index=182 config_type=initial n_minim_iter=13 stress="-0.0002014219974454933 1.903689176837658e-11 -1.728160968268326e-12 1.903689176837658e-11 -0.0003011160870006787 9.04882409682884e-06 -1.728160968268326e-12 9.04882409682884e-06 0.0002169740936565614" pbc="T T T"
Si       3.03868649       1.08895086       0.51213595
Si       5.85645746       4.02587714       2.23902891
Si       8.23239767       9.14070392       4.99019375
Si       5.41462670       6.20377764       3.26330079
Si       4.20937093       8.87948557       3.17763713
Si       7.02714292       6.46499553       5.07585741
Si       7.06171323       1.35016921       2.32469257
Si       4.24394124       3.76465925       0.42647228
Si       2.61453477       4.02683616       2.23216853
Si      -0.20323619       1.08799061       0.51899633
Si       8.65654939       6.20281862       3.27016117
Si      11.47432035       9.14166418       4.98333337
Si       4.23307446       2.96373935       3.60739054
Si       1.41530309       2.15108803      -0.85622569
Si       7.03800970       7.26591543       1.89493915
Si       9.85578107       8.07856675       6.35855538
Si       4.22665716       0.68203881       3.33780802
Si       1.40888492       4.43278857      -0.58664317
18
Lattice="5.634538836237681 1.0759730030087553e-06 1.7683351898554746e-14 2.817267724088308 8.871116028657855 -1.1781792900321748 2.8172691582009417 1.3611102787910165 6.673797366941789" Properties=species:S:1:pos:R:3 unique_starting_index=182 config_type=initial n_minim_iter=14 stress="-2.5775056225308368e-05 -1.4389702297257638e-13 2.5038078849266932e-12 -1.4389702297257638e-13 -2.5025181986265377e-05 -1.3111778456497335e-05 2.5038078849266932e-12 -1.3111778456497335e-05 6.90613082415199e-05" pbc="T T T"
Si       3.03664891       1.08777165       0.51020797
Si       5.85391777       4.02834264       2.23760108
Si       8.23242681       9.14445571       4.98541012
Si       5.41515795       6.20388472       3.25801701
Si       4.21316697       8.88797340       3.17178138
Si       7.03043685       6.46036657       5.07164574
Si       7.05590875       1.34425396       2.32383670
Si       4.23863887       3.77186079       0.42397234
Si       2.61173645       4.02796733       2.23066697
Si      -0.20553240       1.08814572       0.51714208
Si       8.65733927       6.20426003       3.26495112
Si      11.47460813       9.14408164       4.97847601
Si       4.23244654       2.96475580       3.60469906
Si       1.41517728       2.15135787      -0.85689002
Si       7.03662918       7.26747156       1.89091902
Si       9.85389844       8.08086949       6.35250810
Si       4.22590400       0.68055567       3.33689869
Si       1.40863386       4.43555800      -0.58908964
18
Lattice="5.63500224257006 1.076061495273721e-06 1.740215899053966e-14 2.8174994264268647 8.875450085845907 -1.1790306429791373 2.81750086145334 1.3606588197931764 6.669310708831824" Properties=species:S:1:pos:R:3 unique_starting_index=182 config_type=initial n_minim_iter=15 stress="0.00012536962383607556 6.5112129539329645e-12 -1.029786436317937e-11 6.5112129539329645e-12 9.126906480654384e-05 5.3925519940215946e-05 -1.029786436317937e-11 5.3925519940215946e-05 -0.00022033953229884252" pbc="T T T"
Si       3.03574919       1.08736060       0.50959845
Si       5.85324975       4.03069499       2.23554159
Si       8.23425335       9.14874936       4.98068163
Si       5.41675279       6.20541497       3.25473848
Si       4.21623016       8.89374539       3.16771448
Si       7.03373175       6.46041848       5.06770563
Si       7.05377238       1.34236457       2.32256560
Si       4.23627079       3.77569148       0.42257444
Si       2.60999281       4.02973036       2.23042627
Si      -0.20750775       1.08832399       0.51471377
Si       8.66000973       6.20637960       3.25985381
Si      11.47751029       9.14778597       4.97556630
Si       4.23185581       2.96550072       3.60136175
Si       1.41435485       2.15255425      -0.85622171
Si       7.03814672       7.27060924       1.88891832
Si       9.85564769       8.08355571       6.34650179
Si       4.22625155       0.68032994       3.33465536
Si       1.40874972       4.43772503      -0.58951532
18
Lattice="5.6335002266645775 1.0757746701017267e-06 1.7215632139148525e-14 2.8167484178836424 8.878542249536464 -1.180148019805699 2.816749853584688 1.3602184554557755 6.6683539773983505" Properties=species:S:1:pos:R:3 unique_starting_index=182 config_type=initial n_minim_iter=16 stress="8.185023605993227e-06 -1.0221041031041425e-12 1.0309449014894666e-11 -1.0221041031041425e-12 1.3534597707366156e-05 -5.3990906239767294e-05 1.0309449014894666e-11 -5.3990906239767294e-05 8.980033250506647e-06" pbc="T T T"
Si       3.03401840       1.08662617       0.51101951
Si       5.85076795       4.03275532       2.23308347
Si       8.23298010       9.15213559       4.97718645
Si       5.41623055       6.20600643       3.25512249
Si       4.21571843       8.89418054       3.16494743
Si       7.03246901       6.46396103       5.06736151
Si       7.05128007       1.34458122       2.32325854
Si       4.23452950       3.77480073       0.42084445
Si       2.60858627       4.03127828       2.23035130
Si      -0.20816328       1.08810197       0.51375168
Si       8.65841223       6.20748348       3.25785466
Si      11.47516179       9.15065979       4.97445428
Si       4.22881417       2.96438797       3.59963421
Si       1.41206421       2.15499290      -0.85553123
Si       7.03818434       7.27437379       1.88857175
Si       9.85493429       8.08376886       6.34373719
Si       4.22512504       0.68010976       3.33417699
Si       1.40837421       4.43927111      -0.59007401
18
Lattice="5.632847223585746 1.075649972619158e-06 1.6974695730366954e-14 2.8164219167443965 8.876446683603582 -1.1746418877539253 2.8164233512965735 1.364139167193747 6.66956626693295" Properties=species:S:1:pos:R:3 unique_starting_index=182 config_type=initial n_minim_iter=17 stress="-0.00015103597497639128 -1.1196860556736415e-11 -3.3039596240424306e-11 -1.1196860556736415e-11 -9.240340615330655e-05 0.0001730131912285464 -3.3039596240424306e-11 0.0001730131912285464 -4.748694070032854e-05" pbc="T T T"
Si       3.03237647       1.08584694       0.51270276
Si       5.84879952       4.03444712       2.23475943
Si       8.23331603       9.15473996       4.98222162
Si       5.41689298       6.20613979       3.26016495
Si       4.21674405       8.89336305       3.17016385
Si       7.03316812       6.46751624       5.07222273
Si       7.04894845       1.34722385       2.32476054
Si       4.23252437       3.77307067       0.42270166
Si       2.60744691       4.03266257       2.23236528
Si      -0.20897614       1.08763026       0.51509692
Si       8.65824558       6.20792434       3.26255910
Si      11.47466863       9.15295665       4.97982747
Si       4.22763500       2.96624721       3.60189785
Si       1.41121154       2.15404624      -0.85443565
Si       7.03805750       7.27433970       1.89302654
Si       9.85448096       8.08654067       6.34936004
Si       4.22463529       0.68207011       3.33478314
Si       1.40821096       4.43822333      -0.58732094
18
Lattice="5.632215156539512 1.0755292730497781e-06 1.6785252204571708e-14 2.8161058832485897 8.876303672382535 -1.1732200116776974 2.816107317537854 1.3653729503045076 6.671205914264894" Properties=species:S:1:pos:R:3 unique_starting_index=182 config_type=initial n_minim_iter=18 stress="-5.56480141386795e-05 -3.826580414112928e-12 -2.041570466320589e-11 -3.826580414112928e-12 -3.561181780677403e-05 0.00010690629332136791 -2.041570466320589e-11 0.00010690629332136791 4.7337349722797086e-05" pbc="T T T"
Si       3.02880823       1.08538415       0.51388226
Si       5.84491524       4.03545530       2.23511070
Si       8.23562013       9.15629353       4.98410365
Si       5.41951312       6.20622238       3.26287521
Si       4.22083534       8.89145843       3.17199794
Si       7.03694338       6.47105702       5.07498092
Si       7.04359302       1.35021925       2.32598797
Si       4.22748498       3.77062066       0.42300499
Si       2.60518761       4.03391742       2.23384126
Si      -0.21091941       1.08692079       0.51515170
Si       8.65924076       6.20776026       3.26414465
Si      11.47534777       9.15475689       4.98283421
Si       4.22561553       2.96692127       3.60416535
Si       1.40950811       2.15391756      -0.85517239
Si       7.03881283       7.27475641       1.89382056
Si       9.85492025       8.08776012       6.35315830
Si       4.22416124       0.68268700       3.33560296
Si       1.40805294       4.43815183      -0.58661000
18
Lattice="5.6329737018006 1.0756741252040305e-06 1.6530005931565508e-14 2.816485155634093 8.877586872517092 -1.176849773511281 2.8164865906872643 1.3626558064288383 6.669416058655659" Properties=species:S:1:pos:R:3 unique_starting_index=182 config_type=initial n_minim_iter=19 stress="3.6465820015339205e-05 -3.1026727113996867e-12 1.4367497133213283e-11 -3.1026727113996867e-12 5.2710682076767966e-05 -7.524284522645424e-05 1.4367497133213283e-11 -7.524284522645424e-05 -2.4203240668627102e-05" pbc="T T T"
Si       3.02934205       1.08633527       0.51289599
Si       5.84582833       4.03378721       2.23338716
Si       8.23660341       9.15390846       4.97967030
Si       5.42011712       6.20645653       3.25917914
Si       4.22186582       8.89093683       3.16789980
Si       7.03835313       6.46942770       5.07094964
Si       7.04407963       1.34930690       2.32466649
Si       4.22759232       3.77081603       0.42161666
Si       2.60552062       4.03282918       2.23235623
Si      -0.21096567       1.08729206       0.51392693
Si       8.66042483       6.20741456       3.26021007
Si      11.47691112       9.15295167       4.97863937
Si       4.22603709       2.96547417       3.60236169
Si       1.40955039       2.15464768      -0.85607854
Si       7.03990837       7.27476956       1.89020460
Si       9.85639506       8.08559605       6.34864483
Si       4.22473015       0.68132843       3.33470803
Si       1.40824258       4.43879343      -0.58842488
18
Lattice="5.634626996678356 1.0759898389350934e-06 1.6277662893754748e-14 2.8173118036145297 8.874750900508625 -1.1760624995773583 2.8173132381186687 1.3626949475520487 6.668702510928328" Properties=species:S:1:pos:R:3 unique_starting_index=182 config_type=initial n_minim_iter=20 stress="1.1258525326791473e-05 3.5847267071065275e-12 4.14090492199423e-12 3.5847267071065275e-12 -7.516311924416047e-06 -2.168904329178415e-05 4.14090492199423e-12 -2.168904329178415e-05 -5.8954423432840215e-06" pbc="T T T"
Si       3.02984915       1.08665541       0.51412886
Si       5.84716209       4.03206865       2.23219115
Si       8.23940289       9.15079149       4.97851116
Si       5.42208995       6.20537826       3.26044887
Si       4.22495670       8.88722288       3.16758298
Si       7.04227066       6.46894640       5.07137705
Si       7.04429534       1.35022402       2.32505704
Si       4.22698138       3.76850050       0.42126297
Si       2.60511880       4.03147122       2.23149554
Si      -0.21219413       1.08725161       0.51482447
Si       8.66413324       6.20597569       3.26114448
Si      11.48144618       9.15019530       4.97781554
Si       4.22642027       2.96528322       3.60157967
Si       1.40910693       2.15344022      -0.85525965
Si       7.04283177       7.27216369       1.89106035
Si       9.86014512       8.08400668       6.34789967
Si       4.22597012       0.68134800       3.33435126
Si       1.40865590       4.43737544      -0.58803125
