16
Lattice="6.514959938201275 -0.32911737611515895 -0.28465945428203565 0.7725398937361035 6.477360832639663 -0.28465945428257744 0.7725398937356324 0.6517685703061343 6.45076988365642" Properties=species:S:1:pos:R:3 unique_starting_index=52 config_type=initial n_minim_iter=1 energy=-2603.3157950849763 free_energy=-2603.3157950849763 pbc="T T T"
Si       4.64336149       1.71475984       2.00773023
Si       2.98382200       4.20093646       1.40752516
Si       2.47210561       2.60476883       3.95424596
Si       0.98047580       2.71412593       1.72777757
Si       2.23597036       0.61274172       2.43680360
Si       2.84046417       1.78316462       0.25517632
Si       5.36222899       5.38457282       6.20497595
Si       7.72030449       4.12115822       4.43416331
Si       6.21056406       6.77127253       3.43912972
Si       6.63846145       4.61821791       2.35245477
Si       4.06844890       6.03966360       4.23099724
Si       5.67003648       3.15885380       5.36688733
Si       7.11756778       1.26648505       5.05143917
Si       6.30567429       6.14355973       0.52529880
Si       2.44682612       5.97905235       6.00372952
Si       4.54750622       3.83659362       3.31833784
16
Lattice="6.505194944616626 -0.32632401855495585 -0.28224342979834344 0.7736491865221381 6.467264921800011 -0.28224342979888334 0.7736491865216686 0.6527044471185381 6.440431183323205" Properties=species:S:1:pos:R:3 unique_starting_index=52 config_type=initial n_minim_iter=2 stress="-0.001928305314129009 -9.013508295374246e-06 -7.795943146034606e-06 -9.013508295374246e-06 -0.0019252260466608429 -6.577201720663348e-06 -7.795943146034606e-06 -6.577201720663348e-06 -0.0019233103603965881" pbc="T T T"
Si       4.63796719       1.71341802       2.00554919
Si       2.98059567       4.19601513       1.40651165
Si       2.46987467       2.60187684       3.94952206
Si       0.98092693       2.70973503       1.72628888
Si       2.23397046       0.61354099       2.43267308
Si       2.83621191       1.78186210       0.25656251
Si       5.35812681       5.37991434       6.19755179
Si       7.71171025       4.11846464       4.43062336
Si       6.20528138       6.76345617       3.43697440
Si       6.63081446       4.61376318       2.35293721
Si       4.06699912       6.03215350       4.22651948
Si       5.66435778       3.15835302       5.36010091
Si       7.11023111       1.26838866       5.04570482
Si       6.29911592       6.13723705       0.52800892
Si       2.44746724       5.97228947       5.99708228
Si       4.54252726       3.83239303       3.31470467
16
Lattice="6.51642724221859 -0.30445699618331334 -0.2633302544182775 0.7970952541995077 6.474654988598691 -0.2633302544188098 0.7970952541990447 0.6724851861240985 6.445018519657063" Properties=species:S:1:pos:R:3 unique_starting_index=52 config_type=initial n_minim_iter=3 stress="0.0008601683943234956 0.0025070570498067937 0.00216839809577061 0.0025070570498067937 3.687326067229613e-06 0.0018294119671931086 0.00216839809577061 0.0018294119671931086 -0.0005291501216446428" pbc="T T T"
Si       4.66202784       1.72515872       2.01326977
Si       2.99384561       4.21816100       1.41701718
Si       2.48549897       2.61264984       3.96992280
Si       1.00242777       2.70720413       1.74153994
Si       2.25210755       0.63225519       2.42797075
Si       2.83733736       1.80006964       0.27575901
Si       5.40606241       5.42463667       6.22576600
Si       7.75365547       4.15992970       4.47081290
Si       6.25743639       6.79710011       3.47221489
Si       6.66369376       4.64494136       2.40050148
Si       4.12335992       6.05588180       4.25051769
Si       5.70062689       3.20933487       5.38012313
Si       7.16010630       1.30785806       5.07291736
Si       6.33966445       6.18090837       0.56314470
Si       2.49477088       6.00534517       6.03523431
Si       4.56453802       3.85096284       3.33076603
16
Lattice="6.506377367380579 -0.3450197770770933 -0.29841372284434303 0.7554194389136731 6.471578367341898 -0.2984137228448717 0.7554194389132134 0.6373245597727203 6.447029914630529" Properties=species:S:1:pos:R:3 unique_starting_index=52 config_type=initial n_minim_iter=4 stress="-0.0008132160618062112 -0.0011782063669642019 -0.001019051577923403 -0.0011782063669642019 -0.0004107076913314811 -0.0008597430312618884 -0.001019051577923403 -0.0008597430312618884 -0.0001602975646457025" pbc="T T T"
Si       4.63278572       1.67504291       1.97008367
Si       2.93967767       4.19774798       1.37364808
Si       2.43117502       2.56697664       3.95597281
Si       0.97772903       2.67961124       1.73233947
Si       2.23505478       0.61011156       2.40199177
Si       2.80597975       1.78812620       0.25759038
Si       5.32687338       5.36974783       6.17782656
Si       7.68576311       4.09119068       4.42340558
Si       6.18999771       6.73974389       3.41102529
Si       6.60215786       4.58897888       2.36108812
Si       4.06660403       6.00314933       4.20081926
Si       5.63510226       3.16294946       5.33510317
Si       7.12358674       1.23879717       5.03554843
Si       6.28725422       6.15281227       0.50018996
Si       2.42054698       5.96485433       6.01650393
Si       4.49969413       3.79625601       3.28344913
16
Lattice="6.509909184816771 -0.3336252290919359 -0.2885583762517756 0.7672459773553598 6.473141200242754 -0.2885583762523056 0.7672459773548989 0.6473022529822323 6.447156173699403" Properties=species:S:1:pos:R:3 unique_starting_index=52 config_type=initial n_minim_iter=5 stress="4.075935133012235e-05 -0.00016497156781004115 -0.000142686834159723 -0.00016497156781004115 9.711827010354644e-05 -0.0001203805714836073 -0.000142686834159723 -0.0001203805714836073 0.00013218050737636515" pbc="T T T"
Si       4.64226115       1.68805081       1.98098157
Si       2.95375109       4.20495671       1.38494969
Si       2.44559263       2.57879116       3.96147762
Si       0.98403502       2.68632186       1.73730817
Si       2.24191645       0.61533682       2.40791630
Si       2.81365633       1.79377599       0.26190731
Si       5.35017913       5.38852660       6.19302775
Si       7.70718256       4.11117524       4.43979768
Si       6.21243249       6.75764139       3.42843897
Si       6.61894658       4.60499128       2.37279663
Si       4.08312633       6.01735897       4.21497719
Si       5.65371286       3.17653211       5.34712417
Si       7.13524731       1.25929586       5.04749347
Si       6.30378107       6.16181872       0.51875327
Si       2.44271637       5.97783371       6.02274119
Si       4.51510890       3.80926099       3.29469736
16
Lattice="6.513215284677374 -0.3144067530508609 -0.27193597555518956 0.7867467360451873 6.473164181777025 -0.27193597555572363 0.786746736044723 0.6637544539807928 6.444783450501945" Properties=species:S:1:pos:R:3 unique_starting_index=52 config_type=initial n_minim_iter=6 stress="0.000927030504894143 0.0014415114283698482 0.001246788794275789 0.0014415114283698482 0.0004345697337406978 0.0010518780408719508 0.001246788794275789 0.0010518780408719508 0.00012819805767574357" pbc="T T T"
Si       4.65891350       1.70498537       1.99343571
Si       2.97110873       4.21888533       1.39991271
Si       2.46508926       2.59306991       3.97310450
Si       0.99130505       2.69228737       1.75300753
Si       2.25930165       0.61974251       2.41155709
Si       2.82076077       1.81019945       0.26574232
Si       5.38846621       5.42672656       6.21924923
Si       7.74463290       4.14361982       4.47382011
Si       6.25653367       6.78810105       3.45564188
Si       6.64007281       4.62866596       2.39279993
Si       4.10955842       6.03427622       4.23552206
Si       5.68060667       3.19875320       5.36090410
Si       7.15332863       1.29638142       5.06876982
Si       6.33284731       6.17519699       0.55238556
Si       2.48231690       6.00055661       6.03113305
Si       4.52801582       3.82015016       3.30411560
16
Lattice="6.507076291623923 -0.3306731870867611 -0.28600510277793356 0.7696788836460627 6.469851701371639 -0.2860051027784748 0.7696788836455923 0.6493548225228327 6.443533058115224" Properties=species:S:1:pos:R:3 unique_starting_index=52 config_type=initial n_minim_iter=7 stress="0.00021377293296887478 -0.00015010710419414118 -0.00012983029601230426 -0.00015010710419414118 0.0002650537336844108 -0.00010953389863797466 -0.00012983029601230426 -0.00010953389863797466 0.00029695675172217547" pbc="T T T"
Si       4.65142461       1.67507426       1.96395903
Si       2.93684628       4.21714048       1.37456172
Si       2.43434424       2.56356289       3.97503122
Si       0.97423877       2.67200134       1.76801467
Si       2.26818489       0.60091167       2.38932013
Si       2.79789082       1.82311786       0.25031263
Si       5.35718281       5.42017949       6.20340429
Si       7.72297983       4.11558197       4.46962480
Si       6.24481272       6.76813647       3.42850129
Si       6.60415883       4.60034950       2.38111866
Si       4.08809464       6.00150838       4.20918458
Si       5.64664746       3.18277925       5.33227382
Si       7.13879850       1.27523317       5.06048535
Si       6.31931568       6.16276781       0.53265195
Si       2.45902407       5.99080773       6.02167743
Si       4.47792361       3.77788888       3.26756307
16
Lattice="6.4960940207508475 -0.3337301566276203 -0.2886491299378696 0.7648164152393699 6.459540943043695 -0.2886491299384242 0.7648164152388877 0.6452525048208166 6.433710960254203" Properties=species:S:1:pos:R:3 unique_starting_index=52 config_type=initial n_minim_iter=8 stress="-0.002573150025850124 -0.0002786394819689038 -0.00024100022859659012 -0.0002786394819689038 -0.002477958956625709 -0.0002033246123717798 -0.00024100022859659012 -0.0002033246123717798 -0.0024187383056978673" pbc="T T T"
Si       4.64730233       1.66635800       1.94906716
Si       2.92038798       4.21576980       1.36808252
Si       2.42505834       2.54845237       3.97460857
Si       0.95685507       2.67023501       1.79510831
Si       2.29143503       0.57930473       2.38366775
Si       2.79322272       1.84750213       0.22974580
Si       5.34147477       5.41037801       6.18820933
Si       7.70412097       4.10286777       4.46211539
Si       6.23250633       6.75110657       3.41700200
Si       6.58291245       4.57544512       2.37954472
Si       4.07944426       5.98143188       4.18476698
Si       5.61852127       3.17880793       5.31592572
Si       7.10928520       1.27763511       5.06743060
Si       6.32146219       6.13246039       0.53402793
Si       2.45642241       5.99342973       5.99148808
Si       4.45585341       3.75926892       3.25145833
16
Lattice="6.502217530305521 -0.33478757966475287 -0.28956371387216845 0.7648051369390778 6.46575507094273 -0.2895637138727314 0.7648051369385883 0.6452429896595727 6.439992023761298" Properties=species:S:1:pos:R:3 unique_starting_index=52 config_type=initial n_minim_iter=9 stress="-0.000814568923174 -7.189610509529673e-05 -6.218421610909806e-05 -7.189610509529673e-05 -0.0007900071953497997 -5.246294457713361e-05 -6.218421610909806e-05 -5.246294457713361e-05 -0.000774726754427542" pbc="T T T"
Si       4.65390178       1.66302531       1.94464754
Si       2.91671470       4.22309229       1.36542154
Si       2.42288442       2.54509723       3.98223809
Si       0.95638037       2.66967864       1.80641266
Si       2.30230271       0.57696681       2.38148812
Si       2.79259437       1.85863455       0.22774639
Si       5.34447536       5.41556408       6.19135984
Si       7.70843601       4.10517475       4.46679330
Si       6.23812358       6.75452460       3.41861076
Si       6.58615316       4.57420292       2.38771459
Si       4.08778262       5.98329521       4.18236038
Si       5.61784246       3.18738301       5.31811642
Si       7.11521308       1.28084576       5.07690091
Si       6.33215405       6.13664781       0.53584029
Si       2.46058533       6.00356536       5.99537061
Si       4.45540484       3.75889048       3.25113101
16
Lattice="6.5065530648733905 -0.33608963035877554 -0.2906898806044755 0.7642516726849439 6.470247940106009 -0.29068988060505085 0.7642516726844437 0.644776048588237 6.444600287085287" Properties=species:S:1:pos:R:3 unique_starting_index=52 config_type=initial n_minim_iter=10 stress="0.0003479888638378719 4.759839190029295e-05 4.1168693135730117e-05 4.759839190029295e-05 0.00033172791694619164 3.4732782713667764e-05 4.1168693135730117e-05 3.4732782713667764e-05 0.0003216115912494393" pbc="T T T"
Si       4.65945781       1.65922814       1.94038559
Si       2.91295355       4.22937124       1.36227819
Si       2.42007695       2.54176116       3.98890450
Si       0.95647574       2.66825015       1.81617413
Si       2.31163751       0.57546904       2.37866780
Si       2.79120233       1.86834234       0.22667069
Si       5.34524561       5.41849300       6.19312359
Si       7.71070218       4.10556906       4.46943747
Si       6.24114038       6.75630828       3.41861990
Si       6.58774490       4.57174045       2.39278041
Si       4.09264220       5.98407992       4.17919357
Si       5.61568316       3.19268182       5.31934931
Si       7.11709310       1.28351187       5.08395093
Si       6.33972615       6.13726163       0.53746259
Si       2.46352993       6.01074416       5.99574424
Si       4.45457604       3.75819124       3.25052623
16
Lattice="6.512765596218952 -0.3390831064974177 -0.2932789911949924 0.7623469714644066 6.47687580238374 -0.293278991195605 0.7623469714638744 0.6431691097085345 6.451532083350286" Properties=species:S:1:pos:R:3 unique_starting_index=52 config_type=initial n_minim_iter=11 stress="0.0017898299686777283 0.00018985011784263995 0.00016420473321241883 0.00018985011784263995 0.0017249718388042522 0.00013853457286962663 0.00016420473321241883 0.00013853457286962663 0.0016846220381294525" pbc="T T T"
Si       4.67122956       1.64958613       1.93087128
Si       2.90428537       4.24279414       1.35410795
Si       2.41255468       2.53425234       4.00336470
Si       0.95900686       2.66232239       1.83608940
Si       2.33064766       0.57478962       2.36993193
Si       2.78578539       1.88855312       0.22725731
Si       5.34310316       5.42144893       6.19489170
Si       7.71248603       4.10309088       4.47210775
Si       6.24369337       6.75768188       3.41578277
Si       6.58861854       4.56372473       2.39841722
Si       4.09714897       5.98419640       4.17044921
Si       5.60792898       3.19857839       5.32072473
Si       7.11277704       1.28965616       5.09561204
Si       6.35124688       6.13091516       0.54186225
Si       2.46885977       6.02152135       5.98882997
Si       4.45205499       3.75606430       3.24868661
16
Lattice="6.507367107630036 -0.3396586266172207 -0.29377676875130854 0.7608706958389733 6.471651291619021 -0.29377676875194886 0.7608706958384178 0.6419236205609002 6.446433843260871" Properties=species:S:1:pos:R:3 unique_starting_index=52 config_type=initial n_minim_iter=12 stress="-0.00012033357387836574 -2.4373635266219884e-06 -2.1081189318907254e-06 -2.4373635266219884e-06 -0.00011950090207318796 -1.7785562571776773e-06 -2.1081189318907254e-06 -1.7785562571776773e-06 -0.00011898287694149664" pbc="T T T"
Si       4.67404232       1.64610634       1.92928682
Si       2.90271912       4.24591518       1.35089282
Si       2.40959817       2.53316842       4.00691649
Si       0.96577718       2.65497507       1.83606973
Si       2.33072471       0.58164484       2.36266413
Si       2.77968292       1.88967367       0.23508833
Si       5.33531149       5.41471943       6.19118632
Si       7.70660380       4.09619112       4.46598248
Si       6.23574803       6.75307163       3.40983775
Si       6.58491319       4.55698288       2.38810145
Si       4.08550503       5.98242633       4.16526435
Si       5.60065950       3.18800753       5.31972033
Si       7.09408625       1.29120864       5.08999536
Si       6.34284165       6.11338939       0.54420795
Si       2.46724302       6.01327054       5.97114910
Si       4.45111878       3.75527445       3.24800345
16
Lattice="6.505996243319572 -0.3406807640337535 -0.2946608335266809 0.7596323318065253 6.470472101906093 -0.29466083352734046 0.7596323318059535 0.6408788502370774 6.445394365566745" Properties=species:S:1:pos:R:3 unique_starting_index=52 config_type=initial n_minim_iter=13 stress="-0.00022992030524165698 -0.000145897339288525 -0.00012618919570069704 -0.000145897339288525 -0.0001800776783969513 -0.00010646201230056509 -0.00012618919570069704 -0.00010646201230056509 -0.0001490693828741585" pbc="T T T"
Si       4.68070231       1.64369601       1.92180475
Si       2.89619984       4.25378521       1.34958590
Si       2.40834363       2.52676900       4.01489272
Si       0.96366469       2.64938226       1.84733818
Si       2.34056617       0.57782070       2.35550580
Si       2.77381427       1.90066012       0.23233570
Si       5.33206010       5.41575122       6.18835015
Si       7.70343642       4.09343367       4.46741222
Si       6.23621763       6.74977816       3.40690304
Si       6.58157323       4.54781257       2.39055321
Si       4.08603152       5.97894806       4.15583643
Si       5.59105775       3.19018176       5.31763703
Si       7.08686101       1.29058203       5.09447090
Si       6.34590168       6.10553681       0.54294291
Si       2.46540880       6.01668820       5.96356079
Si       4.44024934       3.74610423       3.24007197
16
Lattice="6.506323235378702 -0.3371823373106923 -0.29163498222220696 0.7631358687406345 6.470205376776256 -0.29163498222289824 0.7631358687400359 0.6438346785083127 6.444694367250579" Properties=species:S:1:pos:R:3 unique_starting_index=52 config_type=initial n_minim_iter=14 stress="-8.320326281673219e-05 -7.689856325097742e-05 -6.651093086768384e-05 -7.689856325097742e-05 -5.693255485390606e-05 -5.611326311124543e-05 -6.651093086768384e-05 -5.611326311124543e-05 -4.058891633242586e-05" pbc="T T T"
Si       4.69475878       1.65066710       1.92127682
Si       2.89904191       4.26755980       1.35656030
Si       2.41758195       2.52807420       4.02751844
Si       0.97043440       2.64459497       1.85102851
Si       2.34462565       0.58399504       2.35023667
Si       2.77023518       1.90538975       0.23920493
Si       5.33726104       5.42040346       6.19042337
Si       7.70699528       4.09810203       4.47171712
Si       6.24167915       6.75245566       3.41090229
Si       6.59019019       4.54657858       2.39535300
Si       4.09198900       5.98667221       4.15392362
Si       5.59129225       3.19618546       5.32555620
Si       7.08459414       1.29282042       5.09825237
Si       6.34952654       6.10261792       0.54461298
Si       2.46723355       6.02005386       5.96043170
Si       4.44038615       3.74621966       3.24017180
16
Lattice="6.508308819435043 -0.33305569153465736 -0.28806577311969694 0.7675379215727285 6.471467787275712 -0.28806577312039194 0.7675379215721265 0.647548557498963 6.445429239164169" Properties=species:S:1:pos:R:3 unique_starting_index=52 config_type=initial n_minim_iter=15 stress="0.00028985970049836125 0.00023445121341715233 0.0002027810116103982 0.00023445121341715233 0.00020976458430010264 0.00017108021358438439 0.0002027810116103982 0.00017108021358438439 0.00015993548839649953" pbc="T T T"
Si       4.69965088       1.65874455       1.92752264
Si       2.90710542       4.27114541       1.36365335
Si       2.42636779       2.53475376       4.03004443
Si       0.97544271       2.64910686       1.84343799
Si       2.33870580       0.59008708       2.35579533
Si       2.77552593       1.89848043       0.24443232
Si       5.34438633       5.42446208       6.19483185
Si       7.71307173       4.10429259       4.47509807
Si       6.24687955       6.75773182       3.41654100
Si       6.59989145       4.55659321       2.39742315
Si       4.09706435       5.99564704       4.16353539
Si       5.60279736       3.19936909       5.33305219
Si       7.09244938       1.29720686       5.09575010
Si       6.34903148       6.11067150       0.54931424
Si       2.47288000       6.01858714       5.96772371
Si       4.45328523       3.75710222       3.24958432
16
Lattice="6.5053997248674404 -0.33403385833137117 -0.28891180692630253 0.7660839003819637 6.468764925114564 -0.2889118069270498 0.7660839003813174 0.6463218437455661 6.442876513085782" Properties=species:S:1:pos:R:3 unique_starting_index=52 config_type=initial n_minim_iter=16 stress="-1.7883296209618436e-05 -3.8317465301902225e-05 -3.314145515831242e-05 -3.8317465301902225e-05 -4.79297438412323e-06 -2.79604445301004e-05 -3.314145515831242e-05 -2.79604445301004e-05 3.350829289655072e-06" pbc="T T T"
Si       4.71834714       1.66008562       1.91325404
Si       2.89652585       4.29191960       1.36703667
Si       2.43083771       2.52325743       4.05011420
Si       0.97070116       2.64546199       1.85403765
Si       2.34772894       0.58373558       2.35066098
Si       2.77113473       1.90838434       0.23888703
Si       5.33345326       5.42556736       6.18721175
Si       7.70395498       4.09475843       4.47728994
Si       6.24612819       6.74861136       3.40679049
Si       6.59664028       4.54688017       2.39691487
Si       4.09464137       5.99276266       4.15399698
Si       5.59267557       3.19863996       5.33157251
Si       7.08285549       1.29556344       5.09057316
Si       6.34213289       6.10211703       0.54843403
Si       2.46964466       6.01214127       5.95938538
Si       4.44499295       3.75010628       3.24353340
16
Lattice="6.505386565867171 -0.33143658463032405 -0.2866653788491844 0.7686418770498376 6.468314637201991 -0.28666537884996707 0.7686418770491613 0.6484799313850763 6.442107191274015" Properties=species:S:1:pos:R:3 unique_starting_index=52 config_type=initial n_minim_iter=17 stress="-2.2284447153402686e-05 9.419810995828985e-05 8.147361555862406e-05 9.419810995828985e-05 -5.446516591601515e-05 6.873682817026259e-05 8.147361555862406e-05 6.873682817026259e-05 -7.448556413360436e-05" pbc="T T T"
Si       4.73065561       1.66399655       1.90814127
Si       2.89416668       4.30480932       1.37164358
Si       2.43676524       2.51985159       4.06220547
Si       0.97468799       2.64384892       1.85856371
Si       2.35258595       0.58695051       2.34841250
Si       2.77021598       1.91346863       0.24239243
Si       5.33332154       5.43159782       6.18942883
Si       7.70695206       4.09411287       4.48293795
Si       6.25205038       6.75064026       3.40533772
Si       6.60079803       4.54771338       2.39980280
Si       4.09827678       5.99635965       4.15440531
Si       5.59419695       3.20206815       5.33507311
Si       7.08266566       1.29731692       5.09069395
Si       6.34246783       6.10186723       0.55015180
Si       2.47134115       6.01219129       5.95889065
Si       4.44698476       3.75178670       3.24498684
16
Lattice="6.506311985530759 -0.33311756298915474 -0.28811928683766697 0.7671407159170892 6.46950987987614 -0.28811928683846083 0.7671407159164034 0.6472134470866965 6.443499481118493" Properties=species:S:1:pos:R:3 unique_starting_index=52 config_type=initial n_minim_iter=18 stress="9.369259390339438e-05 -1.7596117213874664e-06 -1.5219193780959438e-06 -1.7596117213874664e-06 9.429372666572591e-05 -1.2839974023441976e-06 -1.5219193780959438e-06 -1.2839974023441976e-06 9.466770579645669e-05" pbc="T T T"
Si       4.72657489       1.66498838       1.90571076
Si       2.89124968       4.30116776       1.37297533
Si       2.43705582       2.51684270       4.05841001
Si       0.97446695       2.64886566       1.85706449
Si       2.35179900       0.58686069       2.35359292
Si       2.77512388       1.91183194       0.24155699
Si       5.32742356       5.42978282       6.19170994
Si       7.70792622       4.08796305       4.48081317
Si       6.24926822       6.75210377       3.39955831
Si       6.59944094       4.54952310       2.39704159
Si       4.09561198       5.99543809       4.15659406
Si       5.59575233       3.19909908       5.33384574
Si       7.08288831       1.28930452       5.08988360
Si       6.34057669       6.10241614       0.54233982
Si       2.46348063       6.01161544       5.96055961
Si       4.45087778       3.75507112       3.24782759
16
Lattice="6.5054834257056795 -0.333675876202474 -0.28860218183546105 0.7664508647407072 6.468787155597923 -0.28860218183628644 0.7664508647399949 0.6466314404892424 6.442853891247341" Properties=species:S:1:pos:R:3 unique_starting_index=52 config_type=initial n_minim_iter=19 stress="-0.0002270149327488841 -1.9410617898635575e-07 -1.6788587580226738e-07 -1.9410617898635575e-07 -0.00022694862062785774 -1.4164024138785347e-07 -1.6788587580226738e-07 -1.4164024138785347e-07 -0.00022690736626582717" pbc="T T T"
Si       4.73098393       1.66398415       1.89871205
Si       2.88502262       4.30670432       1.37299016
Si       2.43680829       2.51056773       4.06388664
Si       0.97616094       2.64637349       1.86290035
Si       2.35742269       0.58761860       2.35028575
Si       2.77295251       1.91790799       0.24278360
Si       5.32111186       5.43031644       6.19215896
Si       7.70737728       4.08165370       4.48127650
Si       6.24873148       6.75163855       3.39324805
Si       6.59765803       4.54711320       2.39812154
Si       4.09602286       5.99355918       4.15405368
Si       5.59307664       3.19997296       5.33235254
Si       7.07939625       1.28758224       5.08897567
Si       6.33885844       6.09916701       0.54076636
Si       2.46119496       6.01026272       5.95757115
Si       4.44694499       3.75175315       3.24495781
16
Lattice="6.507410632397668 -0.3349614562130095 -0.28971410278155046 0.7655081330468739 6.470903307423872 -0.2897141027824146 0.7655081330461283 0.645836086238608 6.445108193435795" Properties=species:S:1:pos:R:3 unique_starting_index=52 config_type=initial n_minim_iter=20 stress="-2.609343436527765e-05 -3.0438134963095372e-05 -2.6326482637536207e-05 -3.0438134963095372e-05 -1.569491297802978e-05 -2.2210858091284147e-05 -2.6326482637536207e-05 -2.2210858091284147e-05 -9.225743021608183e-06" pbc="T T T"
Si       4.73131133       1.66886488       1.89635731
Si       2.88347418       4.30730097       1.37815929
Si       2.44167448       2.50816565       4.06373212
Si       0.97791520       2.64926282       1.86450267
Si       2.35969146       0.58901073       2.35291401
Si       2.77609596       1.91967267       0.24378243
Si       5.31346465       5.42756106       6.19736396
Si       7.71077540       4.07331529       4.47779980
Si       6.24472785       6.75576977       3.38549770
Si       6.60008287       4.55113515       2.39911443
Si       4.09797097       5.99568637       4.15789056
Si       5.59744945       3.20120235       5.33390459
Si       7.07845867       1.28382005       5.08507548
Si       6.33436177       6.09898394       0.53760550
Si       2.45732862       6.00636135       5.95784551
Si       4.44531506       3.75037803       3.24376845
16
Lattice="6.507562836746487 -0.33361119227109015 -0.2885462355562386 0.7668647466710822 6.470825987625166 -0.28854623555710757 0.7668647466703326 0.6469806201707424 6.444863378637585" Properties=species:S:1:pos:R:3 unique_starting_index=52 config_type=initial n_minim_iter=21 stress="4.3839992718601704e-05 4.6526041793878316e-05 4.024119851506885e-05 4.6526041793878316e-05 2.7945390728121625e-05 3.39502835211862e-05 4.024119851506885e-05 3.39502835211862e-05 1.805697699420927e-05" pbc="T T T"
Si       4.73336851       1.67094780       1.89652658
Si       2.88428155       4.30925003       1.38019607
Si       2.44407403       2.50857484       4.06536732
Si       0.97752837       2.64955611       1.86483269
Si       2.35998990       0.58856732       2.35315669
Si       2.77631993       1.91993718       0.24330868
Si       5.31587156       5.42997635       6.19921782
Si       7.71333208       4.07532034       4.47992271
Si       6.24751391       6.75788758       3.38717589
Si       6.60154771       4.55298947       2.40154305
Si       4.10084999       5.99668065       4.15937554
Si       5.59952394       3.20376871       5.33467450
Si       7.08073919       1.28542789       5.08551084
Si       6.33539881       6.10112035       0.53913381
Si       2.45929749       6.00707710       5.95973937
Si       4.44614440       3.75107772       3.24437362
