6
Lattice="3.84824694140449 -0.9099958937845938 -0.404748240475497 -0.8132201703818509 5.536001555265538 -0.6619549928744516 -0.22540812053258868 -3.5299623551445998 5.82619222641352" Properties=species:S:1:pos:R:3 unique_starting_index=70 config_type=initial n_minim_iter=12 energy=-977.9141872113877 free_energy=-977.9141872113877 pbc="T T T"
Si       1.82123623      -2.05086680       2.42657331
Si       3.12826538      -0.27929337       1.56017590
Si       1.53713568       1.28201779       2.44561109
Si       0.89753114       1.72415030       4.68117645
Si      -0.40949801      -0.04742313       5.54757386
Si       1.18163169      -1.60873428       4.66213867
