6
Lattice="3.48335 -2.1329367139049666e-16 -2.1329367139049666e-16 2.132936713904967e-16 3.48335 -2.4564269160487815e-49 5.764908465540246e-16 5.057132382029366e-32 9.414809999999997" Properties=species:S:1:pos:R:3 unique_starting_index=12 config_type=initial n_minim_iter=1 pbc="T T T"
Si       0.29504427       1.74167500       6.86964416
Si       0.29504427       1.74167500       2.54516584
Si       2.03671927       0.94167630       4.70740500
Si       2.03671927       2.54167370       4.70740500
Si       0.14378781      -0.00000000      -0.00000000
Si       1.88546281      -0.00000000      -0.00000000
6
Lattice="3.4894025627570286 -2.1366428397084834e-16 -2.142818067047504e-16 2.1426632294025952e-16 3.4992346052664334 -5.168357805717663e-35 5.745570928845264e-16 5.094162728799426e-32 9.41048693861582" Properties=species:S:1:pos:R:3 unique_starting_index=12 config_type=initial n_minim_iter=2 pbc="T T T"
Si       0.29555404       1.74961730       6.86643204
Si       0.29555404       1.74961730       2.54405490
Si       2.04025914       0.94447888       4.70524347
Si       2.04025914       2.55475572       4.70524347
Si       0.14409333      -0.00000000      -0.00000000
Si       1.88868717      -0.00000000      -0.00000000
6
Lattice="3.5532187249450513 -2.1757778031016703e-16 -2.241775254455101e-16 2.2340429069633285e-16 3.6485628373289143 1.1932060476456274e-17 5.558072990360293e-16 3.217046421461288e-17 9.368600551476261" Properties=species:S:1:pos:R:3 unique_starting_index=12 config_type=initial n_minim_iter=3 pbc="T T T"
Si       0.30093226       1.82428142       6.83529782
Si       0.30093226       1.82428142       2.53330273
Si       2.07758124       0.97130063       4.68430028
Si       2.07758124       2.67726221       4.68430028
Si       0.14725062      -0.00000000      -0.00000000
Si       1.92274322      -0.00000000      -0.00000000
6
Lattice="3.628783825659416 -2.2277291379439264e-16 -2.3127749280230815e-16 2.2358184404585493e-16 3.660905908567714 9.80213271218097e-18 5.482634423069605e-16 2.6718237210781676e-17 9.355170449234384" Properties=species:S:1:pos:R:3 unique_starting_index=12 config_type=initial n_minim_iter=4 pbc="T T T"
Si       0.30731939       1.83045295       6.82495698
Si       0.30731939       1.83045295       2.53021347
Si       2.12176938       0.98375130       4.67758522
Si       2.12176938       2.67715461       4.67758522
Si       0.15062125      -0.00000000      -0.00000000
Si       1.96340999      -0.00000000      -0.00000000
6
Lattice="3.658088713393449 -2.247644681731621e-16 -2.3573238513347004e-16 2.2349197924307223e-16 3.66275445851029 -9.92741288468435e-18 5.403803521085624e-16 -2.6574073416367513e-17 9.344645512958378" Properties=species:S:1:pos:R:3 unique_starting_index=12 config_type=initial n_minim_iter=5 pbc="T T T"
Si       0.30979814       1.83137723       6.81705672
Si       0.30979814       1.83137723       2.52758880
Si       2.13890541       0.98798146       4.67232276
Si       2.13890541       2.67477300       4.67232276
Si       0.15189289      -0.00000000      -0.00000000
Si       1.97921410      -0.00000000      -0.00000000
6
Lattice="4.153937838619821 -2.5505602758708425e-16 -2.9544460945510314e-16 2.2494238742596006e-16 3.687009549743974 -6.967914116523389e-17 4.470864707079798e-16 -1.899091948027198e-16 9.142501897506246" Properties=species:S:1:pos:R:3 unique_starting_index=12 config_type=initial n_minim_iter=6 pbc="T T T"
Si       0.35174350       1.84350477       6.66601895
Si       0.35174350       1.84350477       2.47648294
Si       2.42885380       1.05407327       4.57125095
Si       2.42885380       2.63293628       4.57125095
Si       0.17344292      -0.00000000      -0.00000000
Si       2.24658244      -0.00000000      -0.00000000
6
Lattice="4.1685619934345075 -2.529019437125912e-16 -3.281814431820361e-16 2.4184236759992666e-16 3.915443384867428 -6.4237131456879e-17 3.5167847355257884e-16 -1.8917579523832062e-16 9.01195924240426" Properties=species:S:1:pos:R:3 unique_starting_index=12 config_type=initial n_minim_iter=7 pbc="T T T"
Si       0.35286850       1.95772169       6.57026031
Si       0.35286850       1.95772169       2.44169894
Si       2.43744126       1.08331480       4.50597962
Si       2.43744126       2.83212858       4.50597962
Si       0.17372467      -0.00000000      -0.00000000
Si       2.25497407      -0.00000000      -0.00000000
6
Lattice="4.207247475222922 -2.5163296213403724e-16 -3.628236176563354e-16 2.4869888605596554e-16 3.96848353629354 2.1933570073212208e-16 2.5317293575191756e-16 5.869514074561443e-16 8.893476669215925" Properties=species:S:1:pos:R:3 unique_starting_index=12 config_type=initial n_minim_iter=8 pbc="T T T"
Si       0.35601393       1.98424177       6.48310618
Si       0.35601393       1.98424177       2.41037049
Si       2.46009320       1.09370547       4.44673833
Si       2.46009320       2.87477806       4.44673833
Si       0.17518172      -0.00000000      -0.00000000
Si       2.27625109      -0.00000000      -0.00000000
6
Lattice="4.374934030061801 -2.5628966509191125e-16 -4.3200319664378776e-16 2.8035643370955247e-16 4.405971059593045 7.864506358472554e-17 1.3653474398518848e-17 3.87459811784065e-16 8.181095721194042" Properties=species:S:1:pos:R:3 unique_starting_index=12 config_type=initial n_minim_iter=9 pbc="T T T"
Si       0.36938054       2.20298553       5.95970204
Si       0.36938054       2.20298553       2.22139368
Si       2.55834492       1.15419313       4.09054786
Si       2.55834492       3.25177793       4.09054786
Si       0.18183766      -0.00000000      -0.00000000
Si       2.36854516      -0.00000000      -0.00000000
6
Lattice="4.231442196631573 -2.4849264256135217e-16 -4.1001937888261636e-16 2.759206412218139e-16 4.352675578856147 3.570513603695433e-16 -8.340319585652167e-18 1.1249430920833305e-15 7.61056545265351" Properties=species:S:1:pos:R:3 unique_starting_index=12 config_type=initial n_minim_iter=10 pbc="T T T"
Si       0.35688039       2.17633779       5.54106913
Si       0.35688039       2.17633779       2.06949632
Si       2.47440407       1.12500528       3.80528273
Si       2.47440407       3.22767029       3.80528273
Si       0.17677035      -0.00000000      -0.00000000
Si       2.29079465      -0.00000000      -0.00000000
6
Lattice="4.251053724894671 -2.5374116161914775e-16 -3.6907683482602077e-16 2.714353422734124e-16 4.344944216327899 8.061391449783558e-16 1.2852686026395539e-17 2.4142164170336225e-15 7.001974498464757" Properties=species:S:1:pos:R:3 unique_starting_index=12 config_type=initial n_minim_iter=11 pbc="T T T"
Si       0.35799058       2.17247211       5.09391219
Si       0.35799058       2.17247211       1.90806231
Si       2.48567319       1.11690819       3.50098725
Si       2.48567319       3.22803603       3.50098725
Si       0.18012291      -0.00000000      -0.00000000
Si       2.30036431      -0.00000000      -0.00000000
6
Lattice="4.339372685197022 -2.6215832097086626e-16 -3.438051178442365e-16 2.7015600172195035e-16 4.3727698767758385 1.142307060417793e-15 -3.823591941817961e-17 3.5151087097101345e-15 6.144461046822747" Properties=species:S:1:pos:R:3 unique_starting_index=12 config_type=initial n_minim_iter=12 pbc="T T T"
Si       0.36446951       2.18638494       4.46510473
Si       0.36446951       2.18638494       1.67935631
Si       2.53659736       1.12411010       3.07223052
Si       2.53659736       3.24865978       3.07223052
Si       0.18729260      -0.00000000      -0.00000000
Si       2.34808115      -0.00000000      -0.00000000
6
Lattice="4.490446928539934 -2.7243567732685917e-16 -2.4424475506192265e-16 2.7511171618891134e-16 4.47062190600542 9.98859947514675e-16 1.5073371644577376e-16 3.5064722183487595e-15 5.668197155974501" Properties=species:S:1:pos:R:3 unique_starting_index=12 config_type=initial n_minim_iter=13 pbc="T T T"
Si       0.37652309       2.23531095       4.11913977
Si       0.37652309       2.23531095       1.54905739
Si       2.62392752       1.13953781       2.83409858
Si       2.62392752       3.33108410       2.83409858
Si       0.19423802      -0.00000000      -0.00000000
Si       2.43263663      -0.00000000      -0.00000000
6
Lattice="4.998061961731624 -3.0275516684002447e-16 -6.080433149638184e-16 2.91959900211719e-16 4.732590657240827 1.5895442028806698e-15 -8.730327172132273e-16 5.565624332018799e-15 4.490430036860277" Properties=species:S:1:pos:R:3 unique_starting_index=12 config_type=initial n_minim_iter=14 pbc="T T T"
Si       0.41769391       2.36629533       3.26671658
Si       0.41769391       2.36629533       1.22371346
Si       2.91651811       1.18253768       2.24521502
Si       2.91651811       3.55005298       2.24521502
Si       0.21433098      -0.00000000      -0.00000000
Si       2.72033329      -0.00000000      -0.00000000
6
Lattice="4.955249207788791 -2.882401829834767e-16 9.409455275024453e-16 3.1310002533605563e-16 4.8937776739980885 2.0511089690634285e-15 3.796180542213339e-15 6.423816305818897e-15 5.1533668919163675" Properties=species:S:1:pos:R:3 unique_starting_index=12 config_type=initial n_minim_iter=15 pbc="T T T"
Si       0.41259783       2.44688884       3.76531596
Si       0.41259783       2.44688884       1.38805093
Si       2.89059219       1.25341970       2.57668345
Si       2.89059219       3.64035798       2.57668345
Si       0.22004854      -0.00000000       0.00000000
Si       2.69440092      -0.00000000       0.00000000
6
Lattice="4.732947426466345 -2.721455766773014e-16 -7.081263068468103e-15 3.036434340838594e-16 4.699056604102198 5.642128327355772e-15 -1.7926954014009906e-14 1.6143651568242956e-14 4.9132626151601535" Properties=species:S:1:pos:R:3 unique_starting_index=12 config_type=initial n_minim_iter=16 pbc="T T T"
Si       0.39384228       2.34952830       3.59106935
Si       0.39384228       2.34952830       1.32219327
Si       2.76042241       1.20125526       2.45663131
Si       2.76042241       3.49780134       2.45663131
Si       0.21050931      -0.00000000      -0.00000000
Si       2.57466851      -0.00000000      -0.00000000
6
Lattice="4.802429892453164 -2.684284942471651e-16 -3.018165036684596e-14 3.140839544596713e-16 4.737765955572682 9.911041361830676e-15 -8.075207097165272e-14 2.771694663317072e-14 4.945081008035018" Properties=species:S:1:pos:R:3 unique_starting_index=12 config_type=initial n_minim_iter=17 pbc="T T T"
Si       0.39923036       2.36888298       3.61632125
Si       0.39923036       2.36888298       1.32875976
Si       2.80035697       1.20653859       2.47254050
Si       2.80035697       3.53122737       2.47254050
Si       0.21417018      -0.00000000      -0.00000000
Si       2.61386336      -0.00000000      -0.00000000
