6
Lattice="3.77945 6.138615852714384e-16 1.0632394545049077e-15 3.769119946671789e-16 6.155439999999996 1.3661246698575439e-15 3.7691199466717873e-16 -3.0777200000000016 5.3307674114708865" Properties=species:S:1:pos:R:3 unique_starting_index=156 config_type=initial n_minim_iter=1 pbc="T T T"
Si       3.72599610       1.15365595       2.68324124
Si       1.87706422      -0.83400857       2.57213153
Si       1.95583967       4.71111002       0.07539464
Si       1.96003184       0.47190158       0.20209419
Si       3.63616765       3.21277374       2.56245458
Si       1.96270051       1.15878682       2.56621864
6
Lattice="3.7830699366351923 -0.00012742265316477493 -0.0002229189291541666 -0.00020752821077213267 6.174017361070515 0.00023764079195388011 -0.00021065438485569243 -3.0868028775724503 5.33054456967455" Properties=species:S:1:pos:R:3 unique_starting_index=156 config_type=initial n_minim_iter=2 pbc="T T T"
Si       3.72900900       1.15676616       2.68306432
Si       1.87871281      -0.83705625       2.57196906
Si       1.95754139       4.72461170       0.07538691
Si       1.96187899       0.47387286       0.20197491
Si       3.63934021       3.22290153       2.56229821
Si       1.96483560       1.16282624       2.56612290
6
Lattice="3.8821899777321427 -0.003533267952852046 -0.0062177875937830885 -0.005754493084395272 6.678507387767012 0.006287862142516738 -0.005892701327611012 -3.3338082455325924 5.3224767890267515" Properties=species:S:1:pos:R:3 unique_starting_index=156 config_type=initial n_minim_iter=3 pbc="T T T"
Si       3.81176719       1.24072132       2.67711363
Si       1.92392680      -0.92092332       2.56659110
Si       2.00426461       5.09055700       0.07491947
Si       2.01246756       0.52812183       0.19859105
Si       3.72633491       3.49841645       2.55685340
Si       2.02322790       1.27316013       2.56238829
6
Lattice="4.019062385113602 -0.0016027258690703124 -0.010338618738658087 -0.002610295922293137 6.8980851458104535 -0.008340329481666419 -0.013277072163914255 -3.456265510112282 5.247248248978953" Properties=species:S:1:pos:R:3 unique_starting_index=156 config_type=initial n_minim_iter=4 pbc="T T T"
Si       3.94426864       1.27282701       2.63067342
Si       1.98791362      -0.96976480       2.52775834
Si       2.07722214       5.25168379       0.05969343
Si       2.08368553       0.55387704       0.19020829
Si       3.85520478       3.61606447       2.50539580
Si       2.09460307       1.31998589       2.51769331
6
Lattice="4.135426871336995 0.0003287469593430422 -0.01041796739529313 0.000535417106567856 6.955651949583551 -0.02076046447071478 -0.01496184687621292 -3.495805064417778 5.185078640745678" Properties=species:S:1:pos:R:3 unique_starting_index=156 config_type=initial n_minim_iter=5 pbc="T T T"
Si       4.06929053       1.27868078       2.59521466
Si       2.04458241      -0.98905124       2.49722915
Si       2.13988211       5.29425058       0.04881024
Si       2.14474227       0.56225902       0.18467487
Si       3.96755214       3.64588275       2.46608197
Si       2.14712862       1.33121062       2.48241125
6
Lattice="4.461458424935904 0.007848320188937026 -0.00895946187125786 0.012782247158663308 7.028910099696153 -0.05290456129134095 -0.019028096516532356 -3.5602717439024487 4.987110627678163" Properties=species:S:1:pos:R:3 unique_starting_index=156 config_type=initial n_minim_iter=6 pbc="T T T"
Si       4.43245956       1.28367078       2.48646868
Si       2.20351882      -1.02939906       2.40217131
Si       2.31848717       5.34796219       0.02069331
Si       2.31710007       0.58016737       0.16769944
Si       4.28469161       3.68646407       2.34841456
Si       2.28480709       1.34628696       2.37516495
6
Lattice="4.608547797279786 0.017284920024258056 -0.011825151313339763 0.028151262250891245 6.861476853904987 -0.05959300075607062 -0.03075454770242555 -3.482347479494996 4.765155294103258" Properties=species:S:1:pos:R:3 unique_starting_index=156 config_type=initial n_minim_iter=7 pbc="T T T"
Si       4.60432095       1.26402234       2.37204477
Si       2.27084275      -1.02178474       2.29868547
Si       2.40758086       5.22062643       0.00760238
Si       2.39781591       0.57881730       0.14443431
Si       4.42834642       3.61018379       2.23581781
Si       2.33708516       1.32086163       2.26923642
6
Lattice="4.695804335258696 0.023916556578976043 -0.01883107602972476 0.03895194513182716 6.914964029221502 -0.004976331413899265 -0.046036473808735594 -3.461791644032837 4.751449851061611" Properties=species:S:1:pos:R:3 unique_starting_index=156 config_type=initial n_minim_iter=8 pbc="T T T"
Si       4.69663550       1.30633280       2.38442382
Si       2.30583888      -1.02107871       2.30261314
Si       2.46273315       5.25554041       0.04004949
Si       2.44691331       0.59664827       0.13092650
Si       4.51009846       3.67523252       2.26561080
Si       2.37036161       1.36697804       2.29099254
6
Lattice="4.712767435854734 0.029416486155644184 -0.02398030183524136 0.04790946183754284 6.833347862475171 0.016924409985946968 -0.05777801513751752 -3.4020169622456926 4.688135449406973" Properties=species:S:1:pos:R:3 unique_starting_index=156 config_type=initial n_minim_iter=9 pbc="T T T"
Si       4.71441123       1.30877937       2.35832606
Si       2.30867856      -1.00617691       2.27624162
Si       2.47974929       5.19261923       0.05046448
Si       2.45822999       0.59732596       0.12039750
Si       4.52541782       3.65018739       2.24785669
Si       2.37379001       1.36592703       2.27113696
6
Lattice="4.724666278000444 0.03553471367507181 -0.02958713078650243 0.057873975828252294 6.7998429510317555 0.04613962320969874 -0.07066848657017755 -3.359963389695238 4.653080786338592" Properties=species:S:1:pos:R:3 unique_starting_index=156 config_type=initial n_minim_iter=10 pbc="T T T"
Si       4.72611732       1.32279025       2.34905924
Si       2.30830701      -0.99531854       2.26416462
Si       2.49494236       5.16567894       0.06670758
Si       2.46710840       0.60316850       0.11177871
Si       4.53605727       3.65526996       2.24862741
Si       2.37550800       1.37840137       2.26762977
6
Lattice="4.733174403324917 0.048563107684962616 -0.040685912655948904 0.07909280333602307 6.734011346845327 0.09902384208339667 -0.09693230101640174 -3.281248510598102 4.58985110366498" Properties=species:S:1:pos:R:3 unique_starting_index=156 config_type=initial n_minim_iter=11 pbc="T T T"
Si       4.73328808       1.34851518       2.33125684
Si       2.29990585      -0.97339556       2.24151403
Si       2.51820819       5.11419864       0.09615967
Si       2.47686082       0.61424477       0.09683492
Si       4.54363303       3.66424218       2.24907985
Si       2.37290617       1.40029354       2.25998570
6
Lattice="4.726757124753742 0.06639836547056899 -0.05540217347446606 0.10814037882553307 6.66461869484057 0.15849104580410994 -0.13221280298943452 -3.1950520754815614 4.523796504687465" Properties=species:S:1:pos:R:3 unique_starting_index=156 config_type=initial n_minim_iter=12 pbc="T T T"
Si       4.72346558       1.38014999       2.31111975
Si       2.27991254      -0.94681880       2.21647571
Si       2.54001943       5.06193073       0.12931274
Si       2.48025249       0.62861253       0.08105381
Si       4.53783204       3.68097197       2.24969949
Si       2.36273405       1.42627768       2.25105650
6
Lattice="4.7114138860866746 0.08977819076188144 -0.07649190815716829 0.1462181710416366 6.5964629924566305 0.2227370736512364 -0.18099795063226454 -3.105335532081738 4.455376081606185" Properties=species:S:1:pos:R:3 unique_starting_index=156 config_type=initial n_minim_iter=13 pbc="T T T"
Si       4.70121539       1.41841774       2.28523938
Si       2.24879844      -0.91667458       2.18758042
Si       2.56427718       5.01293427       0.16348087
Si       2.48083579       0.64696130       0.06269850
Si       4.52327385       3.70818125       2.24691577
Si       2.34603232       1.45676918       2.23890927
6
Lattice="4.688493376838899 0.11861227011116514 -0.10859950808127239 0.193179090061536 6.536176741521661 0.2835686525666589 -0.2497649326086999 -3.0225107139211795 4.392861438390124" Properties=species:S:1:pos:R:3 unique_starting_index=156 config_type=initial n_minim_iter=14 pbc="T T T"
Si       4.66467453       1.46090228       2.24943955
Si       2.20343226      -0.88698827       2.15564135
Si       2.59135614       4.97234870       0.19023884
Si       2.47966334       0.66939963       0.03871663
Si       4.49839775       3.74564535       2.23416580
Si       2.31998602       1.48927327       2.22157662
6
Lattice="4.6570236241666105 0.15068539401919132 -0.15817878598730215 0.24541531221778135 6.484185396463945 0.335507966230723 -0.3458126892558148 -2.9515342763041157 4.336767296211545" Properties=species:S:1:pos:R:3 unique_starting_index=156 config_type=initial n_minim_iter=15 pbc="T T T"
Si       4.60772930       1.50326725       2.19501875
Si       2.13864229      -0.86042657       2.11701328
Si       2.61762321       4.93973031       0.20217880
Si       2.47627502       0.69432842       0.00537066
Si       4.45668107       3.78844403       2.20138378
Si       2.27861533       1.52008987       2.19356564
6
Lattice="4.623150016908208 0.18140333524299507 -0.23412731407510545 0.2954444021982413 6.444579115604074 0.3752967040661451 -0.47794968287736356 -2.8972730781241838 4.290958762873043" Properties=species:S:1:pos:R:3 unique_starting_index=156 config_type=initial n_minim_iter=16 pbc="T T T"
Si       4.52906376       1.54040755       2.11355605
Si       2.05150759      -0.84066434       2.06897960
Si       2.63996847       4.91597778       0.19222478
Si       2.47356818       0.71946047      -0.04221937
Si       4.39502520       3.83221825       2.13937641
Si       2.21694761       1.54628725       2.15081793
6
Lattice="4.5951628393985455 0.20303252582615597 -0.34443624442802073 0.3306710052445055 6.413798153962917 0.3955553970867077 -0.6511494456897129 -2.8643380545003247 4.264232760479661" Properties=species:S:1:pos:R:3 unique_starting_index=156 config_type=initial n_minim_iter=17 pbc="T T T"
Si       4.42935472       1.56100648       1.99828314
Si       1.94202797      -0.83362818       2.01167300
Si       2.65230890       4.89448627       0.15065675
Si       2.47474054       0.74028593      -0.10891492
Si       4.31026603       3.86364383       2.03873380
Si       2.13076961       1.56012135       2.09037245
6
Lattice="4.575190150429751 0.20969184666227964 -0.4856286923911283 0.3415167764142723 6.3796675785429855 0.39118681009714384 -0.8557187944762954 -2.851056074101966 4.259856777009838" Properties=species:S:1:pos:R:3 unique_starting_index=156 config_type=initial n_minim_iter=18 pbc="T T T"
Si       4.31204488       1.55509606       1.85223330
Si       1.81596688      -0.84227912       1.94835897
Si       2.64766470       4.86277313       0.07537548
Si       2.47916922       0.75271439      -0.19344403
Si       4.20234152       3.86764467       1.89981306
Si       2.02149508       1.55428682       2.01356925
6
Lattice="4.562813181978453 0.199909810443353 -0.6379403309345983 0.3255851628134875 6.342492234591175 0.36613977818488197 -1.0625826372638403 -2.8541597680514785 4.27810627059797" Properties=species:S:1:pos:R:3 unique_starting_index=156 config_type=initial n_minim_iter=19 pbc="T T T"
Si       4.19094333       1.52333431       1.69744494
Si       1.68947471      -0.86598874       1.88940216
Si       2.62374214       4.81988363      -0.02050285
Si       2.48441381       0.75628047      -0.28504365
Si       4.08284793       3.84420777       1.74388986
Si       1.90253656       1.53037298       1.93274190
6
Lattice="4.556364041674058 0.119132296731785 -1.1654374044036577 0.1940260367499799 6.1936372927894485 0.22088607858134643 -1.74081720562558 -2.9055256910009506 4.444821966105428" Properties=species:S:1:pos:R:3 unique_starting_index=156 config_type=initial n_minim_iter=20 pbc="T T T"
Si       3.79935938       1.33625090       1.18796826
Si       1.27683285      -0.99738595       1.74268663
Si       2.49275902       4.62677038      -0.38954614
Si       2.51268932       0.74860745      -0.61456454
Si       3.67180176       3.68546472       1.20085365
Si       1.49565140       1.39490115       1.67571587
6
Lattice="4.702466899834549 0.07953266544932498 -0.959867728515815 0.1295316911755383 6.265589891609218 0.1692985024786687 -1.4186219903957944 -2.986178141835418 4.7226553825641995" Properties=species:S:1:pos:R:3 unique_starting_index=156 config_type=initial n_minim_iter=21 pbc="T T T"
Si       4.07780501       1.28710911       1.52491946
Si       1.51236402      -1.06606764       1.97579456
Si       2.52026325       4.66262174      -0.32134921
Si       2.57560700       0.74207566      -0.51338040
Si       3.92204634       3.67088590       1.49895864
Si       1.70185732       1.36565546       1.88177467
6
Lattice="4.516576363077636 0.0729682351014794 -0.9249199665647369 0.11884046437261281 6.080256920613065 0.1911668537079375 -1.3639839163154908 -2.8745731086339137 4.476308339006948" Properties=species:S:1:pos:R:3 unique_starting_index=156 config_type=initial n_minim_iter=22 pbc="T T T"
Si       3.91428970       1.25775878       1.44453477
Si       1.44976664      -1.03355874       1.86872804
Si       2.41593899       4.51947016      -0.28946555
Si       2.47278756       0.72303827      -0.49124883
Si       3.76269088       3.57864787       1.43047990
Si       1.63234167       1.33124227       1.78773473
6
Lattice="4.536153784549425 0.06546768988466896 -0.9321347039577408 0.10662462448866158 6.151709977907888 0.1921690202262761 -1.368052103208358 -2.9094317356176225 4.494650433369815" Properties=species:S:1:pos:R:3 unique_starting_index=156 config_type=initial n_minim_iter=23 pbc="T T T"
Si       3.92667426       1.26167926       1.44864919
Si       1.45551727      -1.05687962       1.87512897
Si       2.41518636       4.56386729      -0.29175749
Si       2.48135232       0.73244796      -0.49531924
Si       3.77250587       3.61906858       1.43292594
Si       1.63494084       1.34276984       1.79157071
6
Lattice="4.534591679673487 0.05815804869102381 -0.9336103960613411 0.09471970239974072 6.138356109172802 0.1926228230642051 -1.3641810485524561 -2.9023617964641244 4.48944974020707" Properties=species:S:1:pos:R:3 unique_starting_index=156 config_type=initial n_minim_iter=24 pbc="T T T"
Si       3.92202016       1.25179744       1.44615331
Si       1.45547573      -1.06299515       1.87210977
Si       2.40445373       4.54774466      -0.29185043
Si       2.47832767       0.73050286      -0.49621073
Si       3.76555751       3.61003501       1.42905676
Si       1.63083368       1.33599439       1.78681702
