10
Lattice="5.775909999999999 1.7813296495511127e-15 1.5300850935768311e-15 0.33171875430514974 5.766376591599116 1.549751840372544e-15 0.33171875430515035 0.31318459860077985 5.757865438106511" Properties=species:S:1:pos:R:3 unique_starting_index=178 config_type=initial n_minim_iter=1 pbc="T T T"
Si       5.07232455       2.55615494       2.14326407
Si       2.84324672       2.40716179       4.79348574
Si       2.56648037       4.93307019       2.43597668
Si       2.81021083       3.15169209       0.97084578
Si       3.30788449       1.11195878       2.56796366
Si       1.30009996       2.74006685       3.09431143
Si       2.03659290       1.26933305       3.52662982
Si       1.38420239       3.62789446       1.76589934
Si       3.70140316       1.82703164       1.07592049
Si       4.38507201       4.14006444       3.92099581
10
Lattice="5.816363268026825 -0.005939037886733412 -0.005624777827508923 0.3281128079920578 5.807104177045068 -0.005624777827510365 0.32811280799205694 0.30978012769286495 5.798838403824205" Properties=species:S:1:pos:R:3 unique_starting_index=178 config_type=initial n_minim_iter=2 pbc="T T T"
Si       5.10329208       2.56738241       2.15175364
Si       2.85623416       2.41728295       4.82325157
Si       2.57733070       4.96346473       2.44672648
Si       2.82418525       3.17239542       0.97215635
Si       3.32935622       1.11396057       2.58063597
Si       1.30333160       2.75387846       3.11491302
Si       2.04396272       1.27334282       3.55010479
Si       1.38862879       3.65172188       1.77174121
Si       3.72544547       1.83303057       1.07864936
Si       4.40755868       4.16129471       3.94110270
10
Lattice="6.252506013284877 -0.061147595155334425 -0.057912012685351046 0.2980436753128102 6.24569775462781 -0.05791201268535227 0.2980436753128096 0.281391050722677 6.239624453438628" Properties=species:S:1:pos:R:3 unique_starting_index=178 config_type=initial n_minim_iter=3 pbc="T T T"
Si       5.44453092       2.69910479       2.25396500
Si       3.00733696       2.53743542       5.15031919
Si       2.70596291       5.29786799       2.57270312
Si       2.98181931       3.40011918       0.99437023
Si       3.56575726       1.14397866       2.72351189
Si       1.34687699       2.90926814       3.34109418
Si       2.13080507       1.32310837       3.80614577
Si       1.44329969       3.91193853       1.84155222
Si       3.98837245       1.90489127       1.11443532
Si       4.66171919       4.40125449       4.16836517
10
Lattice="6.710172964304114 -0.10859490115678047 -0.102848677488951 0.27695914944893074 6.70533427153126 -0.10284867748895252 0.27695914944892985 0.2614845827172766 6.7010231574315595" Properties=species:S:1:pos:R:3 unique_starting_index=178 config_type=initial n_minim_iter=4 pbc="T T T"
Si       5.81233334       2.85239815       2.37629453
Si       3.18150073       2.67904942       5.50153771
Si       2.85734564       5.65756999       2.71912624
Si       3.16957523       3.63550825       1.02291604
Si       3.81154090       1.18192871       2.89563208
Si       1.39888011       3.09434292       3.57458543
Si       2.24329679       1.36889512       4.07430491
Si       1.49547142       4.18565864       1.93650248
Si       4.26463707       2.00167647       1.14559017
Si       4.93941501       4.66343458       4.41667218
10
Lattice="6.796507730161596 -0.1365459363123079 -0.12932070305894586 0.2540125775930092 6.7931318056765475 -0.12932070305894572 0.25401257759300994 0.2398201070049696 6.790128856642565" Properties=species:S:1:pos:R:3 unique_starting_index=178 config_type=initial n_minim_iter=5 pbc="T T T"
Si       5.86833693       2.86348835       2.38302767
Si       3.19578898       2.68877468       5.55636466
Si       2.86787544       5.71306043       2.72983437
Si       3.19193526       3.67185880       1.00706064
Si       3.84911561       1.16719575       2.91669881
Si       1.38632943       3.11746191       3.61174347
Si       2.24678974       1.35498002       4.11841312
Si       1.48177990       4.22993455       1.93838688
Si       4.30805357       2.00267760       1.12930000
Si       4.96268209       4.68540165       4.43747688
10
Lattice="6.870405500534081 -0.19255446349510233 -0.18236557797934394 0.20234054950688593 6.870124253985958 -0.1823655779793434 0.20234054950688687 0.19103515540059396 6.869888648197938" Properties=species:S:1:pos:R:3 unique_starting_index=178 config_type=initial n_minim_iter=6 pbc="T T T"
Si       5.89291784       2.84088904       2.35908362
Si       3.17463869       2.66626930       5.58346522
Si       2.84419252       5.73904437       2.70856887
Si       3.18814342       3.68879740       0.95875335
Si       3.86580849       1.11870132       2.91457112
Si       1.33887374       3.11639376       3.63128075
Si       2.22026199       1.30750141       4.14607910
Si       1.43285613       4.25626939       1.91316215
Si       4.33153518       1.97475518       1.08038887
Si       4.93498225       4.65924950       4.41270855
10
Lattice="6.875667254747257 -0.26176325813776297 -0.24791223738764886 0.1335481772560771 6.879352083275443 -0.24791223738764928 0.13354817725607715 0.12608642636266384 6.8826628405145485" Properties=species:S:1:pos:R:3 unique_starting_index=178 config_type=initial n_minim_iter=7 pbc="T T T"
Si       5.84721748       2.77406531       2.29784203
Si       3.10530062       2.60284855       5.54506593
Si       2.77689427       5.69713989       2.64516994
Si       3.14127114       3.66152586       0.88392395
Si       3.83589001       1.04152590       2.87347335
Si       1.26010744       3.07397512       3.60811360
Si       2.15834562       1.23121545       4.12787962
Si       1.35314013       4.23497746       1.85680241
Si       4.30570019       1.91422264       1.00520395
Si       4.83604444       4.56583965       4.32424142
10
Lattice="6.853940722682134 -0.3713303315978551 -0.3516816453586205 0.02291416360934346 6.863954005259007 -0.35168164535862123 0.022914163609342595 0.021633878214989282 6.872923434849733" Properties=species:S:1:pos:R:3 unique_starting_index=178 config_type=initial n_minim_iter=8 pbc="T T T"
Si       5.75136485       2.66243712       2.20331921
Si       2.98835172       2.50361607       5.46104799
Si       2.67110903       5.60721422       2.53884025
Si       3.05132805       3.60742855       0.75139190
Si       3.77671643       0.90448127       2.79411166
Si       1.11989058       2.99194949       3.56129424
Si       2.04456200       1.09250835       4.08349897
Si       1.20812721       4.18492533       1.75373907
Si       4.24740238       1.80360457       0.86911199
Si       4.65134001       4.39145523       4.15908443
10
Lattice="6.74845780509125 -0.3820582437092876 -0.3618418974618541 0.006145923920736657 6.759261311437991 -0.361841897461854 0.006145923920736441 0.005802532088303084 6.7689370927555945" Properties=species:S:1:pos:R:3 unique_starting_index=178 config_type=initial n_minim_iter=9 pbc="T T T"
Si       5.66177673       2.64000779       2.21157173
Si       2.96081425       2.50706867       5.37257779
Si       2.67297442       5.51737068       2.51599582
Si       2.98626527       3.56864444       0.69060677
Si       3.73425969       0.84037896       2.73477766
Si       1.05345573       2.93060091       3.52586876
Si       1.97412983       1.01072318       4.02433333
Si       1.12243201       4.12228312       1.69143045
Si       4.17994196       1.73693670       0.79066095
Si       4.52926203       4.27619812       4.04992607
10
Lattice="6.891591049559017 -0.45940800575753743 -0.43509875064746056 -0.06285582224329467 6.906600615044006 -0.43509875064746 -0.06285582224329443 -0.05934387249289717 6.920037664878621" Properties=species:S:1:pos:R:3 unique_starting_index=178 config_type=initial n_minim_iter=10 pbc="T T T"
Si       5.70961717       2.65235415       2.22945545
Si       2.97588777       2.52748152       5.41858945
Si       2.69421927       5.56406808       2.52735265
Si       2.99188052       3.63536146       0.62329247
Si       3.80118908       0.77326038       2.74020535
Si       0.99029179       2.93985903       3.59614329
Si       1.93998642       0.92677919       4.10716519
Si       1.03666568       4.20340322       1.65770883
Si       4.25600248       1.69836135       0.70234209
Si       4.50299854       4.25140205       4.02644207
10
Lattice="6.681274095687304 -0.437585660814178 -0.41443111990951265 -0.053148298907991255 6.69537751068419 -0.4144311199095122 -0.05314829890799099 -0.05017873859643353 6.70800382065469" Properties=species:S:1:pos:R:3 unique_starting_index=178 config_type=initial n_minim_iter=11 pbc="T T T"
Si       5.53865543       2.58643367       2.18009342
Si       2.90025751       2.46912799       5.25462309
Si       2.63161850       5.39642488       2.46421043
Si       2.90407424       3.53057089       0.60989129
Si       3.69152864       0.75544477       2.65941063
Si       0.96620762       2.85329306       3.49223524
Si       1.88664294       0.90152698       3.98446829
Si       1.00839156       4.07807377       1.61264407
Si       4.12925607       1.65222094       0.68379109
Si       4.37028633       4.12610488       3.90777491
10
Lattice="6.728337362980766 -0.42421523021988616 -0.401768176351091 -0.0370970262256536 6.741595214953116 -0.40176817635109097 -0.03709702622565313 -0.0350243003055405 6.753465555416369" Properties=species:S:1:pos:R:3 unique_starting_index=178 config_type=initial n_minim_iter=12 pbc="T T T"
Si       5.58755233       2.62965696       2.22147354
Si       2.94621768       2.51296352       5.29864107
Si       2.67802123       5.44273324       2.50512248
Si       2.93502820       3.56767917       0.62946779
Si       3.73035340       0.77655502       2.68707661
Si       0.98951280       2.88295753       3.52822551
Si       1.91057426       0.91623983       4.02066256
Si       1.02445453       4.11546633       1.63369111
Si       4.16750944       1.67399125       0.69651643
Si       4.41923314       4.17231689       3.95154164
10
Lattice="6.716601171598669 -0.4211915806214152 -0.3989045210682006 -0.03475239352184446 6.729704742189773 -0.39890452106819874 -0.0347523935218432 -0.03281066950330588 6.7414371015345775" Properties=species:S:1:pos:R:3 unique_starting_index=178 config_type=initial n_minim_iter=13 pbc="T T T"
Si       5.57621207       2.63230188       2.22631268
Si       2.94820695       2.51717237       5.28692173
Si       2.68233738       5.43112594       2.50750067
Si       2.93057567       3.56514514       0.62996892
Si       3.72756783       0.77682189       2.68275609
Si       0.98961924       2.87849152       3.52566800
Si       1.90781855       0.91200949       4.01648088
Si       1.02007291       4.11115460       1.63141372
Si       4.16295318       1.67149310       0.69251945
Si       4.41091100       4.16445973       3.94410024
10
Lattice="6.698689507511014 -0.41617961526627223 -0.39415776037404393 -0.03077739307981675 6.711534797814622 -0.39415776037404066 -0.03077739307981544 -0.029057764665343915 6.723036168923408" Properties=species:S:1:pos:R:3 unique_starting_index=178 config_type=initial n_minim_iter=14 pbc="T T T"
Si       5.55327726       2.64376461       2.24342367
Si       2.95833359       2.53297877       5.26247189
Si       2.69869928       5.40721197       2.51801715
Si       2.92268550       3.56536378       0.63053589
Si       3.72733298       0.77695952       2.67484723
Si       0.98974316       2.87058117       3.52585553
Si       1.90209062       0.89850131       4.01388754
Si       1.00625806       4.10829664       1.62661918
Si       4.15930654       1.66596547       0.67917206
Si       4.39305441       4.14760084       3.92813342
10
Lattice="6.662668215946518 -0.4484800849560451 -0.42474907317490046 -0.06509330352215455 6.677428023140549 -0.4247490731748963 -0.0650933035221527 -0.061456338752648255 6.6906412172386585" Properties=species:S:1:pos:R:3 unique_starting_index=178 config_type=initial n_minim_iter=15 pbc="T T T"
Si       5.43910563       2.64744861       2.27148670
Si       2.95545446       2.55479821       5.14692152
Si       2.72031735       5.29160798       2.52017154
Si       2.87049487       3.55996158       0.59051020
Si       3.71894230       0.73417985       2.62530334
Si       0.94655220       2.82078888       3.52263518
Si       1.85186336       0.79987475       4.01395478
Si       0.90490966       4.10594797       1.58220109
Si       4.15114116       1.61612490       0.58068742
Si       4.27406558       4.03526029       3.82173730
