10
Lattice="6.163142320936817 -0.8693673913332909 1.2181556720116749 -4.436634014188514 6.342441077846307 -1.3057466420743051 1.9420418200401963 -0.5740439723418819 5.260643090877997" Properties=species:S:1:pos:R:3 unique_starting_index=126 config_type=initial n_minim_iter=1 energy=-1627.9859506799996 free_energy=-1627.9859506799996 pbc="T T T"
Si       4.44578594      -1.08907393       4.10854256
Si      -0.59043770       3.72097328       1.06259663
Si       1.24096039       1.93630188       3.21395209
Si       3.11533647       0.98042646       4.50413618
Si       6.85278424      -1.28924064       4.05885326
Si       1.82391919       3.07260662       1.08001981
Si       2.36929188       0.38288958       1.25010806
Si       4.47610094       0.66456152       2.34026984
Si       1.26289264       5.28223501      -0.23125768
Si       4.14330787       3.23704003       0.43732747
10
Lattice="6.167910403961334 -0.8655158297838323 1.213922786729027 -4.43667952631349 6.3418274112205975 -1.2987293660835553 1.9396217535033036 -0.5692169593075651 5.263838753418378" Properties=species:S:1:pos:R:3 unique_starting_index=126 config_type=initial n_minim_iter=2 stress="0.0006773377584682544 -0.00029332931572575364 0.00021227243604726492 -0.00029332931572575364 0.0009190579319060503 -0.00021388271152577155 0.00021227243604726492 -0.00021388271152577155 0.000396412005629846" pbc="T T T"
Si       4.44641153      -1.08422719       4.10842536
Si      -0.58971663       3.72296406       1.06681669
Si       1.24067182       1.94025774       3.21748032
Si       3.11555468       0.98602193       4.50689504
Si       6.85576439      -1.28292498       4.05675586
Si       1.82666144       3.07573366       1.08174210
Si       2.37086544       0.38505681       1.24975211
Si       4.47909653       0.66927971       2.33963661
Si       1.26696447       5.28509873      -0.22847057
Si       4.14905051       3.24114749       0.43731002
10
Lattice="6.164423547928067 -0.8592688766968348 1.2086539583251095 -4.429702664575303 6.331359672893244 -1.2906262237970383 1.9346053561398187 -0.5632550826898414 5.262217253165565" Properties=species:S:1:pos:R:3 unique_starting_index=126 config_type=initial n_minim_iter=3 stress="-7.893245401150276e-05 6.645672174575393e-05 -0.00028479724356423317 6.645672174575393e-05 4.1639222346580735e-05 0.00023020826567648648 -0.00028479724356423317 0.00023020826567648648 -0.00037216225473685573" pbc="T T T"
Si       4.44099372      -1.07721526       4.10461689
Si      -0.58732440       3.71944257       1.06998258
Si       1.23900845       1.94167212       3.21792913
Si       3.11198385       0.99073341       4.50561147
Si       6.84948986      -1.27335717       4.05115834
Si       1.82771550       3.07482022       1.08220983
Si       2.36930662       0.38691458       1.24830274
Si       4.47635550       0.67401164       2.33690358
Si       1.27025074       5.28083785      -0.22553825
Si       4.15008900       3.24151443       0.43705957
10
Lattice="6.164020786628473 -0.8537924095287152 1.2131984606610438 -4.425661659458128 6.3184678022930125 -1.2951625532268323 1.9359628595240586 -0.561433315161518 5.273051986023455" Properties=species:S:1:pos:R:3 unique_starting_index=126 config_type=initial n_minim_iter=4 stress="6.157917009296142e-05 0.00024279161599725745 0.00020899519490931974 0.00024279161599725745 -0.0006944810000108146 1.2599825588255716e-05 0.00020899519490931974 1.2599825588255716e-05 0.0006948275150993749" pbc="T T T"
Si       4.44097094      -1.07431822       4.11417908
Si      -0.58298353       3.71235886       1.07145769
Si       1.24019426       1.93941936       3.22338635
Si       3.11463347       0.99095967       4.51589516
Si       6.84942338      -1.26604820       4.06259670
Si       1.83116769       3.07117486       1.08259266
Si       2.36904430       0.38615289       1.25173543
Si       4.47746498       0.67713832       2.34285513
Si       1.27276270       5.27439033      -0.22615649
Si       4.15318210       3.23979112       0.44046167
10
Lattice="6.158849606068867 -0.8548010196035889 1.2090008869484639 -4.421320542808434 6.325307575646853 -1.2941627552732162 1.9307490593669085 -0.5637875595416094 5.2718543472907005" Properties=species:S:1:pos:R:3 unique_starting_index=126 config_type=initial n_minim_iter=5 stress="-0.0001980782813704935 -5.177513315678828e-05 -0.0005473882981367002 -5.177513315678828e-05 -3.6200792855528314e-05 -0.0005085715126492193 -0.0005473882981367002 -0.0005085715126492193 0.0002333059157697893" pbc="T T T"
Si       4.43227575      -1.08304339       4.11038327
Si      -0.57736657       3.71343534       1.07027602
Si       1.23276462       1.94172706       3.21739120
Si       3.11129230       0.99055864       4.51595346
Si       6.84032565      -1.26507889       4.06355626
Si       1.83369747       3.07381233       1.07156299
Si       2.36324407       0.37904974       1.25138377
Si       4.47192920       0.68197419       2.33898540
Si       1.26853089       5.28419024      -0.23038141
Si       4.15408249       3.24585922       0.44268391
10
Lattice="6.161773216351148 -0.8528054271405962 1.2141974586573043 -4.423069881679594 6.325480364560239 -1.291016873104256 1.9371174644618436 -0.5576150660148054 5.270201276387758" Properties=species:S:1:pos:R:3 unique_starting_index=126 config_type=initial n_minim_iter=6 stress="1.8175402343916272e-05 8.579360404361691e-06 4.1502364953759396e-05 8.579360404361691e-06 5.3932529782709216e-05 5.365344398576477e-05 4.1502364953759396e-05 5.365344398576477e-05 -7.365146573827285e-05" pbc="T T T"
Si       4.43704558      -1.07948912       4.11104737
Si      -0.57391594       3.71522167       1.07322232
Si       1.23611589       1.94704198       3.21769068
Si       3.11795335       0.99624156       4.51819640
Si       6.84587076      -1.25871121       4.06885677
Si       1.83699905       3.07623365       1.07434535
Si       2.36435409       0.37852872       1.25428352
Si       4.47526843       0.68657716       2.34358128
Si       1.26847466       5.28745574      -0.22278824
Si       4.15760213       3.24918757       0.45259439
10
Lattice="6.163825172565438 -0.8504876322927094 1.2203756769943317 -4.424128437451753 6.324333161623308 -1.2885079985869774 1.9434130587749492 -0.5509936695809118 5.271934759779681" Properties=species:S:1:pos:R:3 unique_starting_index=126 config_type=initial n_minim_iter=7 stress="-3.454446257790295e-05 9.148147596452075e-05 0.0005210619237260471 9.148147596452075e-05 0.00018365109499127419 0.00041831335716960744 0.0005210619237260471 0.00041831335716960744 -0.0001589183103752239" pbc="T T T"
Si       4.43924729      -1.07619156       4.11104789
Si      -0.56640686       3.71550827       1.07764654
Si       1.23975250       1.95468284       3.21807337
Si       3.12524422       1.00050053       4.52192979
Si       6.84682583      -1.24815675       4.07921310
Si       1.84122989       3.07661358       1.07502682
Si       2.36523853       0.37226592       1.25951491
Si       4.47366787       0.69088387       2.35090245
Si       1.26789226       5.29264245      -0.21311356
Si       4.16492564       3.25392131       0.46611703
10
Lattice="6.166537246506711 -0.8509441542180589 1.219491417101281 -4.426838207637055 6.321470095831986 -1.2881481761456959 1.9432938928923018 -0.5510911061305009 5.273188275357572" Properties=species:S:1:pos:R:3 unique_starting_index=126 config_type=initial n_minim_iter=8 stress="0.0001801889975249809 3.44680549169608e-06 0.0002652903597812175 3.44680549169608e-06 -5.889735143888918e-05 0.00020829575665210322 0.0002652903597812175 0.00020829575665210322 -0.00016243107398955704" pbc="T T T"
Si       4.43867578      -1.07694138       4.10860804
Si      -0.56430042       3.71246484       1.07855110
Si       1.24001719       1.95561974       3.21705806
Si       3.12629062       0.99811608       4.52134572
Si       6.84609359      -1.24503870       4.08110599
Si       1.84240956       3.07291595       1.07229527
Si       2.36589733       0.36642113       1.26033124
Si       4.47143009       0.68951808       2.35150208
Si       1.26748969       5.29193359      -0.21184598
Si       4.16996978       3.25333262       0.46772418
10
Lattice="6.163903349765729 -0.8512406173812198 1.2181801940240342 -4.424840262712081 6.321676391700456 -1.2886545245363332 1.9406753234206215 -0.5521843402628642 5.275934527705743" Properties=species:S:1:pos:R:3 unique_starting_index=126 config_type=initial n_minim_iter=9 stress="-0.00014165795776574828 -3.873286296763012e-06 -4.0245567028281254e-05 -3.873286296763012e-06 3.602350733074249e-05 -9.063576511504421e-07 -4.0245567028281254e-05 -9.063576511504421e-07 0.00010912783847681696" pbc="T T T"
Si       4.43427487      -1.07781368       4.10790875
Si      -0.56278895       3.71102725       1.07906220
Si       1.23974662       1.95689550       3.21745841
Si       3.12374458       0.99637313       4.52177533
Si       6.83966907      -1.24280688       4.08276464
Si       1.84208424       3.07096467       1.07008459
Si       2.36449784       0.36209376       1.26040306
Si       4.46631535       0.68861398       2.35162777
Si       1.26724467       5.29334842      -0.21192701
Si       4.17062549       3.25458310       0.46719358
10
Lattice="6.167769460479526 -0.8518392758263423 1.2153868370517222 -4.4277327666289885 6.319006966309246 -1.2901287661697154 1.939046469169963 -0.5550752561703842 5.276494836592107" Properties=species:S:1:pos:R:3 unique_starting_index=126 config_type=initial n_minim_iter=10 stress="0.0004158368233319175 -8.497813457731149e-05 -0.000561227193651086 -8.497813457731149e-05 -0.0004041165215079006 -0.0004951920540540968 -0.000561227193651086 -0.0004951920540540968 -2.271987824492342e-05" pbc="T T T"
Si       4.43181360      -1.08002747       4.10370279
Si      -0.56141055       3.70423945       1.07831164
Si       1.24314808       1.95893034       3.21538350
Si       3.12346220       0.99199407       4.51890044
Si       6.83759150      -1.23623351       4.08396490
Si       1.84480682       3.06345321       1.06392185
Si       2.36397623       0.35097586       1.25806032
Si       4.46356685       0.68631899       2.34946372
Si       1.26851799       5.29296046      -0.21211144
Si       4.17745072       3.25603126       0.46530839
10
Lattice="6.150681816145847 -0.8512569500470195 1.2214900317979291 -4.4142051411203695 6.332259904670368 -1.29038755399115 1.937535667065804 -0.5515514158903383 5.285493956522809" Properties=species:S:1:pos:R:3 unique_starting_index=126 config_type=initial n_minim_iter=11 stress="-0.0011022387718565584 -0.00011365574942816347 -0.00038430093308518536 -0.00011365574942816347 0.0004355164008620446 -0.00016859997454497997 -0.00038430093308518536 -0.00016859997454497997 0.0006549552809004826" pbc="T T T"
Si       4.41524885      -1.07945722       4.10855494
Si      -0.55564925       3.70232849       1.08350016
Si       1.25437170       1.97894720       3.22249057
Si       3.11738795       0.99935510       4.52844769
Si       6.81376725      -1.21276299       4.10307332
Si       1.84753406       3.06043939       1.06173066
Si       2.35222057       0.33129741       1.25669696
Si       4.44746761       0.69256022       2.35504410
Si       1.26725957       5.30952526      -0.19998007
Si       4.17134297       3.27415720       0.47590340
10
Lattice="6.1594072768226695 -0.8446205980090216 1.2293698404052822 -4.415790185838485 6.3300152838079295 -1.2896426422074316 1.948008634556227 -0.544542932909941 5.2823211844924325" Properties=species:S:1:pos:R:3 unique_starting_index=126 config_type=initial n_minim_iter=12 stress="0.0005410137002564191 0.00019961017121331297 0.00024141131908531028 0.00019961017121331297 -0.00012394078052614476 -0.00011346945053550888 0.00024141131908531028 -0.00011346945053550888 -0.0005017944847893218" pbc="T T T"
Si       4.41998227      -1.07545175       4.10620416
Si      -0.54824618       3.69651768       1.08613875
Si       1.26941269       1.99463869       3.22180917
Si       3.12979794       1.00832653       4.53134689
Si       6.82486010      -1.18500909       4.11759555
Si       1.85952751       3.05579153       1.05895701
Si       2.35171805       0.31674947       1.25553053
Si       4.45426794       0.70118630       2.35803618
Si       1.27260275       5.31595594      -0.18841729
Si       4.18450586       3.28672321       0.48977227
10
Lattice="6.132549750669744 -0.8438051400794936 1.2612809338497681 -4.408443425086738 6.342774903662157 -1.2498489842566245 1.9656722115078749 -0.4888200064400062 5.3273292925709015" Properties=species:S:1:pos:R:3 unique_starting_index=126 config_type=initial n_minim_iter=13 stress="0.0015608371292953403 -0.002103302952744401 0.00033499290258846186 -0.002103302952744401 -0.0035123632474538227 0.0008642458389378775 0.00033499290258846186 0.0008642458389378775 -0.00039587346046221164" pbc="T T T"
Si       4.38018143      -1.06217050       4.10503558
Si      -0.52413794       3.68547433       1.14244953
Si       1.30764089       2.10309377       3.26864626
Si       3.13863850       1.05906683       4.60201327
Si       6.79487589      -1.03702861       4.23372759
Si       1.87046057       3.02057434       1.06751307
Si       2.32393238       0.21817027       1.26476511
Si       4.40659346       0.71725151       2.39130396
Si       1.25196824       5.34180083      -0.09903375
Si       4.18989673       3.32621754       0.58109733
10
Lattice="6.096947667331077 -0.830982087103477 1.283972955418276 -4.375685746925741 6.367439509916984 -1.2258740413578737 1.97229703837607 -0.45053122773216875 5.356332285475747" Properties=species:S:1:pos:R:3 unique_starting_index=126 config_type=initial n_minim_iter=14 stress="0.0016327531781502441 -0.0019271915965154653 0.0006638881426008675 -0.0019271915965154653 -0.0035880083077825544 0.0012049047745918934 0.0006638881426008675 0.0012049047745918934 -0.0002287518542762591" pbc="T T T"
Si       4.34644663      -1.04536451       4.10356091
Si      -0.50613528       3.70213272       1.17825194
Si       1.33234090       2.18471340       3.30675658
Si       3.13994331       1.10665192       4.65146739
Si       6.76801601      -0.93001412       4.31005955
Si       1.87165521       3.01873200       1.08267315
Si       2.30613556       0.17580145       1.27030288
Si       4.37167698       0.73363338       2.40943689
Si       1.25088026       5.37494453      -0.04552024
Si       4.18316459       3.36734597       0.63306829
10
Lattice="6.073852851629224 -0.8248292343745111 1.285137404325624 -4.351338754073291 6.386583162755916 -1.2204923309730862 1.9655419978916073 -0.44425366031809155 5.3602992927849105" Properties=species:S:1:pos:R:3 unique_starting_index=126 config_type=initial n_minim_iter=15 stress="1.6214455675271866e-05 -0.0010850726109768855 0.0007243118720298674 -0.0010850726109768855 0.0005740816971548044 0.0017048219620553731 0.0007243118720298674 0.0017048219620553731 -5.972139858485001e-05" pbc="T T T"
Si       4.33597454      -1.03720180       4.10348931
Si      -0.51077388       3.73041686       1.18381486
Si       1.32726263       2.19893288       3.32122625
Si       3.13072034       1.12361206       4.66214676
Si       6.75952366      -0.92087391       4.31235391
Si       1.85744904       3.03895818       1.10014539
Si       2.30532453       0.19972986       1.27264700
Si       4.36312386       0.73356329       2.40646863
Si       1.25556737       5.38397637      -0.04597059
Si       4.16250723       3.37345189       0.62637022
10
Lattice="6.05870711432728 -0.8070490682192979 1.2833600481814527 -4.318955716681019 6.3857480334013275 -1.2352858229550006 1.9550904842705246 -0.45243577599840606 5.367138002137519" Properties=species:S:1:pos:R:3 unique_starting_index=126 config_type=initial n_minim_iter=16 stress="-2.738946067679794e-05 0.0007532031314668443 -0.00010907410635362864 0.0007532031314668443 0.0005297137652042021 -0.0003583029923740071 -0.00010907410635362864 -0.0003583029923740071 0.0005843490360430997" pbc="T T T"
Si       4.31860458      -1.03361234       4.10335883
Si      -0.50094262       3.72682135       1.17599743
Si       1.33823275       2.20942092       3.32385386
Si       3.12519141       1.12443285       4.66351935
Si       6.73769418      -0.88765494       4.32129953
Si       1.86276671       3.03913317       1.08841492
Si       2.29840545       0.19302172       1.26781170
Si       4.35309214       0.74151485       2.40009718
Si       1.27573309       5.39564774      -0.05727160
Si       4.16869275       3.39606361       0.61195878
10
Lattice="6.050836644078817 -0.8205427220154424 1.2777904077842335 -4.3226476507848695 6.4055093740033975 -1.2381245310923203 1.9488809051879825 -0.46342577601679946 5.36047009407935" Properties=species:S:1:pos:R:3 unique_starting_index=126 config_type=initial n_minim_iter=17 stress="-0.0011895302558268157 -0.0006420464954473529 -0.0011424389366838652 -0.0006420464954473529 -0.001811087917800642 -0.0015395493352720411 -0.0011424389366838652 -0.0015395493352720411 -0.0005581380411340385" pbc="T T T"
Si       4.31884992      -1.04421038       4.09396844
Si      -0.52335707       3.72600299       1.16600527
Si       1.34089512       2.21570816       3.33018040
Si       3.11984418       1.10722585       4.65749077
Si       6.72334068      -0.86607744       4.32068929
Si       1.84391744       3.02640295       1.07731176
Si       2.29022768       0.17987609       1.26378074
Si       4.34675634       0.72858705       2.38825216
Si       1.27411037       5.38870479      -0.06197057
Si       4.15594434       3.39312599       0.59266997
10
Lattice="6.069473446170381 -0.8006548871599185 1.2911097169633228 -4.321533469539328 6.404168088947072 -1.2233249609201926 1.9688311475359508 -0.43770413961372184 5.355750219617302" Properties=species:S:1:pos:R:3 unique_starting_index=126 config_type=initial n_minim_iter=18 stress="0.0005227999789055282 0.0003560989751117706 0.00027279482861018717 0.0003560989751117706 -0.0004691344549830777 0.00010157773308509403 0.00027279482861018717 0.00010157773308509403 -0.00039486348198924834" pbc="T T T"
Si       4.34980592      -1.02712123       4.09537980
Si      -0.50865054       3.74064892       1.17163999
Si       1.34730303       2.23177890       3.33380164
Si       3.15669376       1.12096353       4.66528804
Si       6.74293117      -0.81878820       4.33809672
Si       1.85558549       3.04771989       1.07550296
Si       2.29681800       0.19176471       1.28626989
Si       4.36977708       0.76070463       2.40544949
Si       1.29002455       5.40572805      -0.04209848
Si       4.18568905       3.41684066       0.62389827
10
Lattice="6.063459649238064 -0.8027704370962059 1.29410138747573 -4.31921865688837 6.41645692982838 -1.2185850911823393 1.969559681299855 -0.43281594375634935 5.35988192895833" Properties=species:S:1:pos:R:3 unique_starting_index=126 config_type=initial n_minim_iter=19 stress="0.000365274993359112 -6.024848227567241e-05 0.00025403093370609284 -6.024848227567241e-05 0.00021132404232960782 0.0002841920827615933 0.00025403093370609284 0.0002841920827615933 0.00017560712857524668" pbc="T T T"
Si       4.34616895      -1.02844551       4.09327930
Si      -0.50781600       3.74781832       1.17788081
Si       1.35112582       2.24628525       3.33981726
Si       3.15699215       1.12379464       4.67092529
Si       6.73467950      -0.80285333       4.35001617
Si       1.85298339       3.04909499       1.07584714
Si       2.29392258       0.18378840       1.29047141
Si       4.36204626       0.76156722       2.40885513
Si       1.28764576       5.41551812      -0.03308949
Si       4.18154232       3.42547592       0.63160886
10
Lattice="6.063691800675968 -0.8079273393521172 1.2904896440298237 -4.3222948806431845 6.426418300425633 -1.219736013221034 1.9669373073869392 -0.4381328048103592 5.356557888508184" Properties=species:S:1:pos:R:3 unique_starting_index=126 config_type=initial n_minim_iter=20 stress="-0.0006704368637581006 -0.0005977471983532287 -7.455502309732805e-05 -0.0005977471983532287 0.001186893776596338 9.806385742778457e-05 -7.455502309732805e-05 9.806385742778457e-05 0.0006716933049696469" pbc="T T T"
Si       4.34999323      -1.03710640       4.08758891
Si      -0.51015057       3.75447913       1.17669522
Si       1.35201412       2.24358869       3.33518098
Si       3.15681430       1.10946133       4.66122067
Si       6.72533635      -0.80884742       4.34375795
Si       1.84968403       3.05237201       1.06866217
Si       2.29519923       0.18474983       1.29817599
Si       4.35884890       0.75838275       2.40744070
Si       1.28630907       5.42177608      -0.03787143
Si       4.17529759       3.42954722       0.62523948
10
Lattice="6.060792116330167 -0.7926926692834907 1.2918826221169437 -4.30710720115626 6.420836446964695 -1.2121717522510769 1.9673005248601538 -0.4262766244589318 5.3573952998403795" Properties=species:S:1:pos:R:3 unique_starting_index=126 config_type=initial n_minim_iter=21 stress="-0.0005234403434761609 -8.863216775421037e-05 -0.000135334732385094 -8.863216775421037e-05 0.0006452950495782256 5.7614818083210245e-05 -0.000135334732385094 5.7614818083210245e-05 -1.6469023190720476e-07" pbc="T T T"
Si       4.34903815      -1.03299685       4.07966130
Si      -0.50319692       3.75768069       1.18478196
Si       1.36936427       2.26543905       3.34127857
Si       3.16433855       1.11441090       4.66549879
Si       6.72120012      -0.76148908       4.35872043
Si       1.85662676       3.05340899       1.06287017
Si       2.29269400       0.18113948       1.30742495
Si       4.35928316       0.77135571       2.40644628
Si       1.29781619       5.42815680      -0.03044484
Si       4.17375671       3.44978759       0.63100638
