22
Lattice="5.322309110983906 1.3220188037019789 0.3626899978683851 4.024778623207083 6.398465622112049 0.7089805460684923 2.014964507761764 2.017263011337737 16.7853557039022" Properties=species:S:1:pos:R:3 unique_starting_index=40 config_type=initial n_minim_iter=1 energy=-3574.2008474274 free_energy=-3574.2008474274 pbc="T T T"
Si       8.30068103       5.19039696      14.13838876
Si       2.39718044       3.27204317       5.67168533
Si       5.42866888       2.41220302       7.27869680
Si       5.07115207       5.64901843      14.32460514
Si       4.97314348       4.23047068      16.12948030
Si       7.91468554       7.03654067       7.45556353
Si       6.43610983       3.54723450       2.80469345
Si       6.57899719       6.65858597      10.86440180
Si       5.14018247       3.58324860       0.82757301
Si       7.07684854       6.95067037      15.65752681
Si       5.48236508       4.31766431      11.55025788
Si       4.72954577       6.48086080      12.23858416
Si       2.78726001       3.58725919       1.26392230
Si       2.12023378       1.60809368       8.28670573
Si       3.79943259       2.31270322      16.63857666
Si       8.60420176       7.18151257       9.83727279
Si       4.55569801       4.56526202       6.44386556
Si       5.94915932       7.26513486       6.16116316
Si       5.80935031       5.43075565       4.55630183
Si       5.24510481       3.00372195       9.58729996
Si       7.19991539       3.81860938      15.72927188
Si       4.57574765       2.50231060       4.99381873
22
Lattice="5.2700411987015485 1.293975093853369 0.41190090025158166 3.9536462784665223 6.395258683045096 0.7859444641221636 2.109224023551078 2.133966465602401 16.80788329953666" Properties=species:S:1:pos:R:3 unique_starting_index=40 config_type=initial n_minim_iter=2 stress="-0.00344724494436468 -0.0019025113312968803 0.002681173519895787 -0.0019025113312968803 -0.0014886635237853657 0.002145897274830826 0.002681173519895787 0.002145897274830826 -0.0017698886316708398" pbc="T T T"
Si       8.29579242       5.26707942      14.23611360
Si       2.39196803       3.30664961       5.70961780
Si       5.41749351       2.44284318       7.33407631
Si       5.10290885       5.74043076      14.40020192
Si       5.01480024       4.32714239      16.19095526
Si       7.86413773       7.05487378       7.56322513
Si       6.37868634       3.54099329       2.88122889
Si       6.56203645       6.70968603      10.95748668
Si       5.07897631       3.56640065       0.89372754
Si       7.09482566       7.02962513      15.75311297
Si       5.49585023       4.37734831      11.61920139
Si       4.72662310       6.56835580      12.31688057
Si       2.74007614       3.59128310       1.30819436
Si       2.15326985       1.66784687       8.30846284
Si       3.87711717       2.41208352      16.68671914
Si       8.56419954       7.21080498       9.95360149
Si       4.53800068       4.59148531       6.50367941
Si       5.89460350       7.29596588       6.24910764
Si       5.76320114       5.43350825       4.63980486
Si       5.24173899       3.05474922       9.64618406
Si       7.23010488       3.89997934      15.79840227
Si       4.55738325       2.51281949       5.03882714
22
Lattice="5.267273156332296 1.2957891624814082 0.42627470144752855 3.9345186192170285 6.4705788676755365 0.8214730373089701 2.1226614532475017 2.2198555602062195 16.957559772620705" Properties=species:S:1:pos:R:3 unique_starting_index=40 config_type=initial n_minim_iter=3 stress="0.008218140521162067 -0.0029065985845964895 0.0031699478078455845 -0.0029065985845964895 0.011201233160156105 0.0032900968400773243 0.0031699478078455845 0.0032900968400773243 0.011157380665567743" pbc="T T T"
Si       8.28667822       5.39868938      14.39181063
Si       2.37355996       3.36319074       5.76776842
Si       5.41158158       2.50125685       7.41163357
Si       5.11815725       5.86347762      14.55251151
Si       4.99972917       4.42582721      16.34973387
Si       7.87368809       7.13742905       7.66148043
Si       6.37209028       3.59144011       2.93666215
Si       6.56077008       6.80474982      11.08049497
Si       5.07236319       3.60083838       0.92687696
Si       7.11390394       7.13484337      15.91344924
Si       5.50457353       4.45696575      11.74223513
Si       4.69024592       6.71406100      12.45139487
Si       2.70578645       3.64366271       1.32746511
Si       2.15904282       1.73622779       8.37939678
Si       3.89300900       2.47870350      16.86656041
Si       8.57932970       7.29672330      10.08253188
Si       4.54011144       4.64855913       6.56799835
Si       5.87673439       7.40700210       6.31367721
Si       5.76956487       5.48356249       4.71049630
Si       5.21705046       3.13168004       9.74954777
Si       7.24152548       3.98797601      15.93848349
Si       4.55842583       2.54026420       5.08093534
22
Lattice="5.116401827376512 1.2993263797361947 0.37759329673983183 3.82283069778173 6.464991891889737 0.7738252478983748 1.9358288650316084 2.206664338321028 16.67583229054982" Properties=species:S:1:pos:R:3 unique_starting_index=40 config_type=initial n_minim_iter=4 stress="-0.0050547643841746025 -0.002736136107344653 0.0024897869399373076 -0.002736136107344653 0.0011312453311350277 0.0028850688107348687 0.0024897869399373076 0.0028850688107348687 -0.0034430387734246484" pbc="T T T"
Si       7.91680406       5.49419028      14.12422813
Si       2.22236315       3.35169434       5.64430307
Si       5.18179469       2.54489489       7.25690600
Si       4.91537532       5.87483352      14.29680158
Si       4.67614111       4.39953972      16.06260274
Si       7.66376781       7.08538739       7.47474969
Si       6.17218301       3.63083606       2.87143569
Si       6.31394509       6.74798745      10.84913617
Si       4.93399568       3.59927938       0.88980062
Si       6.86225781       7.04535420      15.59057375
Si       5.28698150       4.43428658      11.52526576
Si       4.37972317       6.77923637      12.22322972
Si       2.55049537       3.66586635       1.25610973
Si       2.03846048       1.79376974       8.21153356
Si       3.66387086       2.41504890      16.65591451
Si       8.34265873       7.22853613       9.87988764
Si       4.39013502       4.59656383       6.39049089
Si       5.66298920       7.42554186       6.09932074
Si       5.62847916       5.41465175       4.60345570
Si       4.91780323       3.17362933       9.57279395
Si       6.93380483       3.97268496      15.59143724
Si       4.40107758       2.50560851       4.92259686
22
Lattice="5.126333599859427 1.3061890018743214 0.36676432298919176 3.856343912934557 6.395342419538649 0.7460222409107596 1.9224751948306156 2.118649736490793 16.784787668331386" Properties=species:S:1:pos:R:3 unique_starting_index=40 config_type=initial n_minim_iter=5 stress="-0.0024848700605727666 -0.0008087152149695902 0.0018803687299626377 -0.0008087152149695902 -0.0027085620537569154 0.000822301861360996 0.0018803687299626377 0.000822301861360996 -0.0005844739595414468" pbc="T T T"
Si       7.91922279       5.44109122      14.19463026
Si       2.22432670       3.29027912       5.66885931
Si       5.18224372       2.51855534       7.29688364
Si       4.94514534       5.77252117      14.37141124
Si       4.65639990       4.29161753      16.15386101
Si       7.71188434       6.98525604       7.48670158
Si       6.19022561       3.61452475       2.88175579
Si       6.33474915       6.62946703      10.88895914
Si       4.95199430       3.57123112       0.88140578
Si       6.89645958       6.90636740      15.66061711
Si       5.30408555       4.35596526      11.59216523
Si       4.37032146       6.68843547      12.27619889
Si       2.54337477       3.63673592       1.23156658
Si       2.03552366       1.76784213       8.25584956
Si       3.65651720       2.31180664      16.79456714
Si       8.40001929       7.11742920       9.91799824
Si       4.41255553       4.51479058       6.39633896
Si       5.69513776       7.33980262       6.07817235
Si       5.66811674       5.33689725       4.60593761
Si       4.89173697       3.12910610       9.62364554
Si       6.94121492       3.88166768      15.66274701
Si       4.41027680       2.45822400       4.92351385
22
Lattice="5.132540752402379 1.3493240414423209 0.2741515916791031 3.890516816475715 6.462739985249818 0.6477020571830301 1.6742321274067853 2.0701807241610597 16.59257823026387" Properties=species:S:1:pos:R:3 unique_starting_index=40 config_type=initial n_minim_iter=6 stress="0.002577432838135925 0.003458161413008488 -0.003276113781717513 0.003458161413008488 0.0019078645285110175 -0.0033969193575485463 -0.003276113781717513 -0.0033969193575485463 0.002483476115451796" pbc="T T T"
Si       7.72915144       5.53297501      13.90280669
Si       2.16588030       3.29363104       5.58401129
Si       5.09100809       2.54294055       7.15584460
Si       4.80110674       5.80074401      14.13288973
Si       4.40659045       4.26493983      15.90333499
Si       7.66284839       7.03402127       7.26482251
Si       6.17109475       3.68682820       2.76278700
Si       6.19843848       6.64288445      10.65506661
Si       4.94994950       3.62260720       0.79632116
Si       6.71927082       6.93062492      15.38699049
Si       5.17237658       4.38268458      11.41057751
Si       4.18804364       6.75638460      12.06211296
Si       2.50833095       3.70032011       1.12892110
Si       1.91343908       1.78887954       8.13839494
Si       3.41246397       2.22990884      16.63735551
Si       8.35549088       7.15583207       9.67775152
Si       4.35201493       4.52031544       6.21415398
Si       5.66251939       7.41113091       5.85121098
Si       5.65428715       5.38565866       4.44219882
Si       4.70559087       3.15736007       9.44007663
Si       6.74269591       3.85513496      15.36811494
Si       4.35178811       2.44275780       4.76387332
22
Lattice="5.2057353091919785 1.302510273123684 0.24049989811690936 3.907403389362357 6.372597239813608 0.6490587197734154 1.5756026020964904 2.1347425780068643 16.393449333196216" Properties=species:S:1:pos:R:3 unique_starting_index=40 config_type=initial n_minim_iter=7 stress="0.01081872986176912 0.0013621293366036932 -0.004206891258412612 0.0013621293366036932 -0.0017392436581685341 -0.0023828766790193116 -0.004206891258412612 -0.0023828766790193116 0.0058718734531980074" pbc="T T T"
Si       7.72496093       5.55632816      13.68468950
Si       2.17264552       3.26391428       5.55445620
Si       5.12204441       2.51035315       7.07278952
Si       4.79007521       5.80885481      13.95361488
Si       4.32483999       4.26475084      15.68400568
Si       7.69530568       6.93947294       7.16541406
Si       6.22966494       3.63415767       2.72895274
Si       6.15810006       6.57187857      10.51882980
Si       4.97035490       3.55082008       0.78958402
Si       6.67753903       6.93576500      15.21991055
Si       5.16850886       4.39580982      11.30035016
Si       4.10749632       6.76938665      11.91724723
Si       2.48089045       3.67764116       1.07944614
Si       1.86851268       1.83029018       8.04216739
Si       3.34208363       2.23451996      16.48811889
Si       8.43841331       7.06678960       9.56333575
Si       4.35034655       4.45660116       6.09750039
Si       5.68394257       7.33278738       5.73545843
Si       5.68595892       5.33555183       4.36385431
Si       4.63638551       3.15766618       9.30314799
Si       6.74521385       3.81950697      15.13805850
Si       4.37152307       2.36556671       4.65759859
22
Lattice="5.140786227732582 1.3309246179049357 0.24406157667436268 3.864891955459839 6.48091506624889 0.66557001896493 1.5689271815009238 2.2381250772957557 16.07661732074155" Properties=species:S:1:pos:R:3 unique_starting_index=40 config_type=initial n_minim_iter=8 stress="0.005202601738469231 0.002908602999103836 -0.0019231233146496023 0.002908602999103836 6.712715460943453e-05 -0.0058081805364684465 -0.0019231233146496023 -0.0058081805364684465 0.00764174943022483" pbc="T T T"
Si       7.63853977       5.79289365      13.40674514
Si       2.19216226       3.32455327       5.50640143
Si       5.08404258       2.56685016       6.97708972
Si       4.81277624       5.99171390      13.69100549
Si       4.25618719       4.37098758      15.36135231
Si       7.61903703       7.06332102       7.05830155
Si       6.15885706       3.72870696       2.72918791
Si       6.05987363       6.69312890      10.34032300
Si       4.86236888       3.60598570       0.81830059
Si       6.61427961       7.15585871      14.98074701
Si       5.14010452       4.55685487      11.15227869
Si       4.03423231       6.99577345      11.69490252
Si       2.40093573       3.77972955       1.01967232
Si       1.83968156       1.93629925       7.89503635
Si       3.31441647       2.27234446      16.26320517
Si       8.43088280       7.20021835       9.44379538
Si       4.29979999       4.52082399       5.94428407
Si       5.64449359       7.48607351       5.58395691
Si       5.63320620       5.46801355       4.28396957
Si       4.49313062       3.27360971       9.12990045
Si       6.70079845       3.89976914      14.83180838
Si       4.31823715       2.35293051       4.53319393
22
Lattice="5.122575058380651 1.346698202988713 0.2336177007718729 3.8249441830805395 6.624148553607809 0.785461224925078 1.4559856234639048 2.7238357218671014 15.46676238863426" Properties=species:S:1:pos:R:3 unique_starting_index=40 config_type=initial n_minim_iter=9 stress="0.0001951735979959286 -0.0007303050790946568 -0.0027565565251866657 -0.0007303050790946568 -0.0015770038617943175 0.0013776608134441716 -0.0027565565251866657 0.0013776608134441716 0.0007971890407483326" pbc="T T T"
Si       7.51069005       6.34013515      12.92931428
Si       2.17591567       3.52499299       5.40199060
Si       5.03914318       2.77070522       6.74475869
Si       4.76429170       6.50533934      13.24313456
Si       4.10416675       4.83646439      14.78592291
Si       7.54044814       7.35217492       6.90515269
Si       6.11838366       3.87954672       2.71023850
Si       5.92109983       7.06641901      10.05349090
Si       4.77510127       3.67516715       0.87187245
Si       6.48602671       7.73045730      14.53937331
Si       5.06326781       4.98496464      10.83749723
Si       3.88674580       7.52461272      11.35648417
Si       2.32533111       3.90678499       1.00938265
Si       1.76829409       2.23502344       7.61774703
Si       3.19459913       2.69318987      15.72418665
Si       8.41167092       7.55280083       9.23224546
Si       4.22735657       4.72153108       5.73977111
Si       5.58640898       7.78813511       5.44284799
Si       5.58563021       5.70646294       4.19809230
Si       4.31270034       3.60756800       8.81911631
Si       6.59983180       4.33121153      14.26177696
Si       4.27064282       2.43245159       4.33731243
22
Lattice="5.162032202788181 1.4027382559951802 0.3266285076602676 3.878605224890143 6.821496915171835 0.8869820284941509 1.7751857955032881 2.9383716126842776 14.836111647297912" Properties=species:S:1:pos:R:3 unique_starting_index=40 config_type=initial n_minim_iter=10 stress="0.00025414268296660174 -0.004439540386436981 0.0037407160135750146 -0.004439540386436981 0.0029536530210851194 0.0027277252205323886 0.0037407160135750146 0.0027277252205323886 -0.001888261819569557" pbc="T T T"
Si       7.82728585       6.68841322      12.52648622
Si       2.34094335       3.66622955       5.28067442
Si       5.23447060       2.87075748       6.56277009
Si       5.12774620       6.82157974      12.79195072
Si       4.41990571       5.08372182      14.22463610
Si       7.74121105       7.61183123       6.80790483
Si       6.22918263       4.03865834       2.76570916
Si       6.14848070       7.35476347       9.78684515
Si       4.76427882       3.77413133       0.97035934
Si       6.83733733       8.11470704      14.09789059
Si       5.32560299       5.27028287      10.54182586
Si       4.14065311       7.89047701      10.96873201
Si       2.36448749       4.01572607       1.00342203
Si       1.93106830       2.40366589       7.34862278
Si       3.51951900       2.88936948      15.17156982
Si       8.71710217       7.84536495       9.09346374
Si       4.35046186       4.88159643       5.57653017
Si       5.75386008       8.07058731       5.33050128
Si       5.72221821       5.95262723       4.15074028
Si       4.44943526       3.82114963       8.55587647
Si       6.93152556       4.60854689      13.79529256
Si       4.38924090       2.49722606       4.22159134
22
Lattice="5.171093611770954 1.5086437188942985 0.3679185888201793 3.9691718440885504 6.995671080461881 0.9727065564697606 1.9087055987952182 3.204848851708314 14.455744674652957" Properties=species:S:1:pos:R:3 unique_starting_index=40 config_type=initial n_minim_iter=11 stress="-0.005366402236663139 -0.003042076771913784 0.00361353618725815 -0.003042076771913784 0.0014042730720471518 0.005305560538667498 0.00361353618725815 0.005305560538667498 -0.003781162366865365" pbc="T T T"
Si       7.98936859       7.08786597      12.27012471
Si       2.45479101       3.82553704       5.22664347
Si       5.33523529       3.01722045       6.43188395
Si       5.34747034       7.17495196      12.52381145
Si       4.56777105       5.38965028      13.87709517
Si       7.86783973       7.91390868       6.75797507
Si       6.29990959       4.23672610       2.80020225
Si       6.28955179       7.69043112       9.63469324
Si       4.74200595       3.88475136       1.03625256
Si       7.03170278       8.55649079      13.83645065
Si       5.45334983       5.60562074      10.37546457
Si       4.30938028       8.26512295      10.74445991
Si       2.43611721       4.09399604       1.00126320
Si       2.00493803       2.59697264       7.19717570
Si       3.63954919       3.17937321      14.84139553
Si       8.90309081       8.19902624       9.03303751
Si       4.40901481       5.06609509       5.48108635
Si       5.88792814       8.35665913       5.27566272
Si       5.82549373       6.22748805       4.12367909
Si       4.48634649       4.08714555       8.40579897
Si       7.06012568       5.00567592      13.51283313
Si       4.44267838       2.61640540       4.14011446
22
Lattice="5.221652636060333 1.5651334152803538 0.39559668573128953 4.066602368521702 7.05104601362287 0.9528477843740679 2.071081773816234 3.121069905917012 14.254352471757187" Properties=species:S:1:pos:R:3 unique_starting_index=40 config_type=initial n_minim_iter=12 stress="-0.007677122342051589 -0.0008260140236939186 0.004244442520405088 -0.0008260140236939186 0.003102826817030025 0.0007006726921540463 0.004244442520405088 0.0007006726921540463 -0.002081860922600596" pbc="T T T"
Si       8.21622068       7.05389513      12.11235194
Si       2.55551170       3.83347855       5.15928934
Si       5.47569367       2.98054707       6.34660379
Si       5.56800455       7.14447482      12.34272710
Si       4.77523990       5.33965955      13.68149676
Si       8.03503287       7.96044211       6.68706305
Si       6.40992726       4.28628427       2.79010289
Si       6.50446346       7.72714996       9.50644552
Si       4.78399411       3.90899970       1.04436365
Si       7.27309283       8.55087189      13.63589490
Si       5.60650836       5.60555518      10.24964550
Si       4.51773182       8.26431423      10.56250136
Si       2.53977149       4.06651177       0.97280763
Si       2.09982767       2.57253976       7.11790024
Si       3.80711809       3.14916892      14.65282613
Si       9.09611606       8.23833058       8.96549399
Si       4.50099614       5.08284820       5.41573946
Si       6.03355144       8.40287729       5.20358366
Si       5.95541870       6.30086974       4.07033889
Si       4.61730075       4.09807335       8.32326642
Si       7.23956022       5.06547246      13.38331917
Si       4.53448629       2.64568230       4.10713697
22
Lattice="5.314067562591965 1.5969627548037437 0.38456329197694816 4.1730224361633 7.05663392406791 0.9362999767104888 2.105080988855238 3.1308589579260886 13.899575289882682" Properties=species:S:1:pos:R:3 unique_starting_index=40 config_type=initial n_minim_iter=13 stress="-0.0038669234522914525 0.0011068688853073342 0.0014910504907464262 0.0011068688853073342 -0.003045964949819455 0.0014645073737496463 0.0014910504907464262 0.0014645073737496463 -0.00645803597900447" pbc="T T T"
Si       8.37534329       7.10433469      11.79570929
Si       2.61672704       3.84685975       5.04838190
Si       5.60215819       2.96656606       6.18230403
Si       5.73980872       7.17682402      12.02766258
Si       4.85131367       5.33535957      13.32228278
Si       8.20554549       7.96709685       6.52930318
Si       6.54060697       4.32792758       2.74086272
Si       6.66866593       7.74460908       9.26626177
Si       4.84760592       3.89682997       1.04130563
Si       7.44182185       8.58010330      13.28842784
Si       5.71073248       5.65018528      10.01837079
Si       4.60445652       8.33482424      10.28407223
Si       2.59717632       4.03197942       0.91787066
Si       2.13088131       2.61878997       6.95888794
Si       3.86626909       3.17143525      14.33678798
Si       9.31390114       8.24295142       8.79500913
Si       4.57761199       5.07026568       5.26032599
Si       6.16709811       8.42830375       5.04524731
Si       6.10126175       6.33532415       3.96206843
Si       4.64509540       4.15939378       8.13685631
Si       7.35729341       5.15869563      13.06173514
Si       4.62131435       2.63931174       3.98062589
22
Lattice="5.34893181154014 1.5510490948616116 0.34401282823567714 4.176628692454099 6.926423172869511 0.8556301757026266 2.014130405489632 2.9170776950676944 14.07511447402566" Properties=species:S:1:pos:R:3 unique_starting_index=40 config_type=initial n_minim_iter=14 stress="0.0025048797264189513 0.0010665474599254865 -0.0014535232895640045 0.0010665474599254865 -0.003054069230043276 -0.004424372890824411 -0.0014535232895640045 -0.004424372890824411 -6.194098660984933e-05" pbc="T T T"
Si       8.34225440       6.77354094      11.85960278
Si       2.55577787       3.74326252       5.04914644
Si       5.60992591       2.81299336       6.20543280
Si       5.67521770       6.90923106      12.10619024
Si       4.78862317       5.08160531      13.45063001
Si       8.18239447       7.74642968       6.51103039
Si       6.55362070       4.19892924       2.68904374
Si       6.69441066       7.51514662       9.28641286
Si       4.89648602       3.79180608       1.00024128
Si       7.38169661       8.26267503      13.34412951
Si       5.64001272       5.41655657      10.06389860
Si       4.55012399       8.08350853      10.33174889
Si       2.61331813       3.90060022       0.88024051
Si       2.07983556       2.48972997       7.04658875
Si       3.79211224       2.99376932      14.49479178
Si       9.26302261       7.97468812       8.81984046
Si       4.56173598       4.92277184       5.27599485
Si       6.13625602       8.22494057       5.02102166
Si       6.10411773       6.16253852       3.93022078
Si       4.62535804       4.00983096       8.20723413
Si       7.28233755       4.98052968      13.20193440
Si       4.62766028       2.56998884       3.99229530
22
Lattice="5.315167320852946 1.596239338790651 0.354598186495811 4.175679057569167 7.029324500937387 0.9377256151047251 1.984286580611208 3.1794538523512843 14.110343480626419" Properties=species:S:1:pos:R:3 unique_starting_index=40 config_type=initial n_minim_iter=15 stress="0.004163852766222165 0.0012021276920879441 -0.005638430563087903 0.0012021276920879441 0.005008763477524475 0.001405352976179866 -0.005638430563087903 0.001405352976179866 0.00601556241725123" pbc="T T T"
Si       8.29954080       7.05038875      11.90447881
Si       2.52104370       3.88541140       5.08950159
Si       5.59637201       2.93266288       6.24721368
Si       5.68550029       7.22008401      12.16958025
Si       4.73645140       5.32660184      13.48137162
Si       8.12157562       7.95201931       6.60921149
Si       6.51059948       4.30775771       2.73330280
Si       6.71873633       7.75554952       9.35908840
Si       4.88919893       3.83977160       1.07069015
Si       7.33931465       8.61759704      13.43326499
Si       5.58802180       5.67264811      10.12819535
Si       4.52647889       8.41059362      10.41813831
Si       2.58289240       3.93219961       0.90039624
Si       2.03640385       2.67308683       7.10314616
Si       3.76015747       3.27934883      14.56616840
Si       9.23180387       8.20783925       8.96394060
Si       4.54591258       5.04569424       5.31077933
Si       6.11501474       8.42597574       5.09398403
Si       6.08714542       6.31121857       3.99589350
Si       4.53611963       4.23917262       8.25076768
Si       7.21651253       5.31586856      13.28117292
Si       4.59783280       2.66276696       3.98612525
22
Lattice="5.365207640536049 1.6391053801971385 0.48867256729030056 4.268786363740514 7.055977516164249 1.047881886186425 2.438842475486273 3.2383742508450384 13.946586179576132" Properties=species:S:1:pos:R:3 unique_starting_index=40 config_type=initial n_minim_iter=16 stress="0.005356903355779311 0.0013760576062028594 0.0011717951615064352 0.0013760576062028594 0.0005039305202867398 0.0017889486440817149 0.0011717951615064352 0.0017889486440817149 0.004628494282111276" pbc="T T T"
Si       8.76977560       7.10952495      11.90872385
Si       2.68616323       3.93272839       5.07489469
Si       5.86266252       2.96048631       6.32698059
Si       6.16445895       7.32491965      12.11832725
Si       5.19440342       5.35798603      13.36723275
Si       8.36862611       8.02424608       6.74825528
Si       6.64029401       4.34696380       2.85834316
Si       7.15814427       7.81756100       9.38911473
Si       5.00369912       3.85407388       1.21975984
Si       7.81940845       8.75809056      13.43220012
Si       5.94220437       5.76090362      10.12321590
Si       4.93372494       8.52959488      10.38605829
Si       2.61613100       3.91345188       0.93743686
Si       2.23953301       2.74399123       7.08548378
Si       4.26177904       3.36481138      14.46985322
Si       9.60759789       8.28675732       9.14220063
Si       4.77010926       5.06134016       5.34110378
Si       6.35510031       8.47853276       5.17788612
Si       6.27387076       6.36846433       4.10113085
Si       4.78104448       4.32870476       8.22706672
Si       7.68512610       5.44086445      13.30997992
Si       4.75592991       2.69820107       4.01778168
22
Lattice="5.322770718672325 1.6038808807641454 0.5054038642282417 4.195167482580977 7.06519264375246 1.034978495874699 2.490192569724196 3.1697631705072777 13.785784566384727" Properties=species:S:1:pos:R:3 unique_starting_index=40 config_type=initial n_minim_iter=17 stress="-0.001117816717667562 -0.002023941915177976 0.0014269456072460065 -0.002023941915177976 0.000964886349316684 0.00047059872165688494 0.0014269456072460065 0.00047059872165688494 0.0018013338163108924" pbc="T T T"
Si       8.75431696       7.02139178      11.77733781
Si       2.67124246       3.91494616       5.01436382
Si       5.84492071       2.89729363       6.30119500
Si       6.15791017       7.28350628      11.97564021
Si       5.20886199       5.26714597      13.20112785
Si       8.27174402       7.98310971       6.69357105
Si       6.57266439       4.29491976       2.84012610
Si       7.13553635       7.75337006       9.28387129
Si       4.96472290       3.83795983       1.22816023
Si       7.77327389       8.72087662      13.30027686
Si       5.93358731       5.70991576      10.01740937
Si       4.92489760       8.52003442      10.26948356
Si       2.55988921       3.92554523       0.91752815
Si       2.22778857       2.71675665       7.02122744
Si       4.32141024       3.26519300      14.31799383
Si       9.54848321       8.23361012       9.07690600
Si       4.74425803       5.01416567       5.28275280
Si       6.30143106       8.45128256       5.11870739
Si       6.20205120       6.34779655       4.06400727
Si       4.75179610       4.27021093       8.11345415
Si       7.69356443       5.31427657      13.18946479
Si       4.72528689       2.64780805       3.97626289
22
Lattice="5.363240191123163 1.6410609684425943 0.5378502028433971 4.259808065967171 7.120209119542276 1.0543063570168443 2.6304048611089605 3.1932178092595764 13.575989069934037" Properties=species:S:1:pos:R:3 unique_starting_index=40 config_type=initial n_minim_iter=18 stress="-0.0014079416721114392 -9.437768519558131e-05 0.0019410072689759095 -9.437768519558131e-05 -0.00021317875385370124 7.41856931416784e-05 0.0019410072689759095 7.41856931416784e-05 -0.0008656065817542202" pbc="T T T"
Si       8.94907213       7.07945742      11.64111956
Si       2.74539567       3.95223412       4.94807972
Si       5.93709621       2.92965033       6.26582947
Si       6.32367154       7.36620345      11.81664455
Si       5.37814269       5.30344344      13.00213091
Si       8.37185679       8.07176958       6.65596939
Si       6.63983971       4.32944818       2.84009749
Si       7.30815722       7.82210363       9.17764493
Si       5.02103697       3.88789427       1.24936875
Si       7.94199211       8.83034267      13.15320866
Si       6.07894660       5.76920480       9.89368198
Si       5.10790349       8.60527748      10.14748461
Si       2.60490164       3.96584469       0.91536401
Si       2.28494620       2.73778257       6.94463860
Si       4.49529884       3.29095076      14.10748463
Si       9.70564338       8.34690393       9.02029191
Si       4.83673277       5.04881245       5.23579419
Si       6.43769806       8.51373123       5.08940768
Si       6.28359246       6.42240054       4.04550100
Si       4.85297749       4.29820623       7.98570210
Si       7.87325122       5.34965410      13.04880020
Si       4.78719027       2.68263592       3.94386281
22
Lattice="5.392518458965034 1.6445200191938647 0.5448660963176337 4.277867615408737 7.162109881971048 1.036200524064142 2.6964066474671866 3.1614610827006433 13.229792133907612" Properties=species:S:1:pos:R:3 unique_starting_index=40 config_type=initial n_minim_iter=19 stress="-0.005496280013553529 0.000817773048028474 -0.00039538857345490497 0.000817773048028474 -0.002571227495697845 -0.0015533521109300174 -0.00039538857345490497 -0.0015533521109300174 -0.006766953094031241" pbc="T T T"
Si       9.06444923       7.05632260      11.35934652
Si       2.76887733       3.97533304       4.81468832
Si       5.98435452       2.88523880       6.15719020
Si       6.41862432       7.41010256      11.51211437
Si       5.46157801       5.26222756      12.64116415
Si       8.37718411       8.09141906       6.51929437
Si       6.66580972       4.31374108       2.79221975
Si       7.42618105       7.82436481       8.93724670
Si       5.02736586       3.90339432       1.23782556
Si       8.00747934       8.85522183      12.84029134
Si       6.15554453       5.76742446       9.64758385
Si       5.20848591       8.69939929       9.90021007
Si       2.63430316       3.99021234       0.86973271
Si       2.27533077       2.74174242       6.81629679
Si       4.60980008       3.23732076      13.76012848
Si       9.78964047       8.39011655       8.86454774
Si       4.86604024       5.02074054       5.11224142
Si       6.51776067       8.54078091       4.96774542
Si       6.31341673       6.45749595       3.95499926
Si       4.86388757       4.28849798       7.75107375
Si       7.96353159       5.31103865      12.77039350
Si       4.81297045       2.67157438       3.84816092
22
Lattice="5.424871445380297 1.6323123406929536 0.5606565590910035 4.28963045457864 7.159547466426919 1.0474509674132244 2.760561547972555 3.166501409821178 13.112603726395188" Properties=species:S:1:pos:R:3 unique_starting_index=40 config_type=initial n_minim_iter=20 stress="-0.004360344843814482 0.0015059491677101452 -0.0015043475488923594 0.0015059491677101452 -0.0020538302627441164 -0.0011576349932082702 -0.0015043475488923594 -0.0011576349932082702 -0.006791284072077009" pbc="T T T"
Si       9.17374259       7.03272551      11.29607815
Si       2.77633205       3.99286737       4.75983750
Si       6.02214009       2.84942046       6.14149849
Si       6.49841985       7.45178927      11.42013551
Si       5.54440387       5.25118513      12.51213979
Si       8.38898022       8.07442040       6.50057017
Si       6.69520717       4.28072180       2.79683259
Si       7.53819673       7.81111004       8.85820986
Si       5.02739922       3.89885722       1.24398664
Si       8.08022496       8.83866945      12.74924163
Si       6.23394136       5.74978958       9.56273106
Si       5.29756620       8.78141047       9.83923499
Si       2.67392683       3.99355573       0.85173260
Si       2.26744033       2.75349931       6.80479483
Si       4.72494731       3.21870214      13.63681288
Si       9.86717069       8.41074809       8.86055415
Si       4.89134674       4.98225933       5.09023773
Si       6.59025643       8.53568100       4.95227859
Si       6.34533513       6.44335468       3.94523133
Si       4.88225474       4.28326494       7.65903290
Si       8.04915626       5.29261956      12.70859075
Si       4.84121460       2.66767810       3.82916673
22
Lattice="5.435552584804019 1.5887433721999182 0.571418216792379 4.258679300882842 7.109725257130197 1.0541839496889667 2.787574202908568 3.140045177998072 13.127702673813857" Properties=species:S:1:pos:R:3 unique_starting_index=40 config_type=initial n_minim_iter=21 stress="-0.002574062479474098 0.0010697704970308664 -0.0017820732269485473 0.0010697704970308664 -0.0014727696994996417 -0.0010396260279712506 -0.0017820732269485473 -0.0010396260279712506 -0.003835001248635663" pbc="T T T"
Si       9.20502120       6.95973732      11.34067527
Si       2.75217547       3.97254974       4.75092708
Si       6.02503595       2.77663236       6.16119542
Si       6.52180897       7.42517554      11.43558735
Si       5.56677314       5.19576718      12.50990384
Si       8.36222905       7.97069978       6.52377075
Si       6.69369459       4.21576217       2.82279163
Si       7.56819325       7.72525579       8.85416532
Si       4.98300249       3.85277437       1.24992805
Si       8.09917933       8.72207040      12.76649769
Si       6.26595064       5.67821124       9.56805030
Si       5.29970365       8.80779860       9.86075825
Si       2.68316414       3.96877439       0.82986932
Si       2.24324463       2.75207528       6.85194838
Si       4.79070741       3.14777626      13.65563553
Si       9.89403978       8.33256331       8.92499529
Si       4.87168572       4.89884824       5.10489660
Si       6.59363103       8.47518635       4.96143680
Si       6.34057540       6.36221645       3.96024678
Si       4.84830087       4.25031737       7.65026195
Si       8.07494273       5.21678300      12.74997807
Si       4.84340033       2.62286395       3.84027968
