14
Lattice="7.154809999999995 -8.031901471248235e-08 -2.6241995600413123e-07 -2.9363641671208383 6.524497805513364 -2.624199639645247e-07 -2.936364276985625 -2.727456104086121 5.9270614444168155" Properties=species:S:1:pos:R:3 unique_starting_index=10 config_type=initial n_minim_iter=1 pbc="T T T"
Si       2.32869203       3.33949300       3.07102350
Si      -0.84677342       0.76662844       2.85603740
Si       0.55959687       2.17032154       3.60741082
Si       3.03154466       5.19804876       2.31964982
Si       0.00800092      -2.53730389       5.81956815
Si      -1.03497934       2.76301686       0.10749306
Si       1.77709609      -1.36813243       5.28318083
Si      -0.69485159       4.85609425       0.64388012
Si       3.18147043       4.92065027      -0.00000040
Si      -1.89938888      -1.12360864       5.92706132
Si      -0.84477736       5.13349275       2.96353033
Si      -2.91872816       1.92579783       2.96353059
Si       3.16383432       0.26739634       2.96353046
Si       2.10922292       3.26224887      -0.00000026
14
Lattice="7.168771673088408 0.025493524098149475 0.0003237162098693689 -2.9188463838117835 6.54769218946737 -0.00032424496632069036 -2.9515441358900447 -2.7521620846370056 5.925298250292404" Properties=species:S:1:pos:R:3 unique_starting_index=10 config_type=initial n_minim_iter=2 pbc="T T T"
Si       2.34539051       3.36480304       3.07014483
Si      -0.84572608       0.76753721       2.85515286
Si       0.56866872       2.18352405       3.60648158
Si       3.05616056       5.23572179       2.31881585
Si      -0.00087691      -2.55041011       5.81796400
Si      -1.02698785       2.77352428       0.10733401
Si       1.77584488      -1.36913112       5.28162725
Si      -0.67894921       4.87852542       0.64367049
Si       3.20556322       4.95791359      -0.00000040
Si      -1.90715717      -1.13685145       5.92529812
Si      -0.82835187       5.15633361       2.96248674
Si      -2.91710091       1.92575085       2.96248700
Si       3.17109850       0.27996743       2.96281085
Si       2.12495923       3.28658758      -0.00000026
14
Lattice="7.340339073916537 0.3495082354477884 0.004658861248075181 -2.693788146613528 6.837122138918484 -0.004659439350891502 -3.1418812168572674 -3.0640411695452507 5.898372312950488" Properties=species:S:1:pos:R:3 unique_starting_index=10 config_type=initial n_minim_iter=3 pbc="T T T"
Si       2.55570613       3.68374003       3.05659128
Si      -0.83153775       0.77833880       2.84178043
Si       0.68374647       2.34958211       3.59177132
Si       3.36664968       5.71037813       2.30660010
Si      -0.11344523      -2.71507488       5.79329618
Si      -0.92465920       2.90485929       0.10507587
Si       1.75851443      -1.38091696       5.25811615
Si      -0.47629570       5.15945034       0.64025562
Si       3.50939402       5.42783628      -0.00000044
Si      -2.00434148      -1.30465495       5.89837217
Si      -0.61904005       5.44199218       2.94685615
Si      -2.89373669       1.92381187       2.94685643
Si       3.26092636       0.43948346       2.95151544
Si       2.32321577       3.59322286      -0.00000029
14
Lattice="7.321637053616515 0.4854602092888428 0.010121846652658974 -2.562137648908159 6.875862957895009 -0.01012243880801298 -3.181505983285387 -3.162281680814467 5.819258568223484" Properties=species:S:1:pos:R:3 unique_starting_index=10 config_type=initial n_minim_iter=4 pbc="T T T"
Si       2.61607126       3.77438391       3.01554368
Si      -0.81327814       0.77234611       2.80371426
Si       0.72766030       2.39100859       3.54371810
Si       3.45972793       5.84387720       2.27553955
Si      -0.15788716      -2.75408394       5.71840465
Si      -0.86866883       2.92477533       0.10085365
Si       1.73052380      -1.37070862       5.19023024
Si      -0.38217550       5.21456741       0.62902777
Si       3.59656375       5.56265813      -0.00000045
Si      -2.01784562      -1.36249575       5.81925842
Si      -0.51901131       5.49578648       2.90456777
Si      -2.84560733       1.89733551       2.90456806
Si       3.26012003       0.50219790       2.91469006
Si       2.37957006       3.68038375      -0.00000030
14
Lattice="7.246726073238177 0.6284370483652141 0.014758407049516125 -2.401012756969355 6.8662296515178465 -0.014759009931214487 -3.2014248891052475 -3.243945803980435 5.695000232534421" Properties=species:S:1:pos:R:3 unique_starting_index=10 config_type=initial n_minim_iter=5 pbc="T T T"
Si       2.66074348       3.84484438       2.95030377
Si      -0.78727753       0.76033603       2.74469583
Si       0.77001152       2.41874948       3.46701193
Si       3.53393885       5.94556183       2.22798737
Si      -0.20523279      -2.77554453       5.59957533
Si      -0.80251296       2.92447258       0.09542463
Si       1.68549917      -1.34944963       5.08286717
Si      -0.27801603       5.23391348       0.61213249
Si       3.66365968       5.66643267      -0.00000046
Si      -2.01807167      -1.41370175       5.69500009
Si      -0.40773686       5.51304264       2.84012031
Si      -2.77314371       1.85456456       2.84012061
Si       3.23444508       0.56647863       2.85487917
Si       2.42249050       3.74676703      -0.00000030
14
Lattice="7.183095025062235 0.7108507110856791 0.007855896176522546 -2.2997449814417084 6.84202717645233 -0.007856503740811262 -3.2124450759533643 -3.2780933543058124 5.605147910973834" Properties=species:S:1:pos:R:3 unique_starting_index=10 config_type=initial n_minim_iter=6 pbc="T T T"
Si       2.67415838       3.88071951       2.90066858
Si      -0.77108859       0.75314488       2.70447869
Si       0.79045743       2.43302562       3.40822617
Si       3.56518277       5.99412915       2.19692080
Si      -0.23876595      -2.77777576       5.51098077
Si      -0.76416893       2.91704151       0.09416686
Si       1.64493501      -1.33008187       5.00342319
Si      -0.21709025       5.22893513       0.60172414
Si       3.69349160       5.71257247      -0.00000046
Si      -2.02043556      -1.43446096       5.60514776
Si      -0.34539907       5.51049181       2.79864540
Si      -2.72726703       1.82655400       2.79864570
Si       3.20674506       0.60549920       2.80650175
Si       2.44109245       3.77553790      -0.00000030
14
Lattice="7.197067402204507 0.7218272211392842 -0.007599964114878027 -2.295469782284228 6.859273446724623 0.007599354280308454 -3.235167380615988 -3.2834125573162027 5.604690280516726" Properties=species:S:1:pos:R:3 unique_starting_index=10 config_type=initial n_minim_iter=7 pbc="T T T"
Si       2.67489169       3.90278129       2.89670442
Si      -0.77399362       0.75754864       2.70798522
Si       0.79044842       2.44799723       3.40313499
Si       3.57436440       6.02316893       2.20155434
Si      -0.25291084      -2.78116101       5.50653056
Si      -0.76592556       2.92565698       0.09815944
Si       1.63153242      -1.32637694       5.00009999
Si      -0.21268596       5.24113736       0.60458971
Si       3.70786381       5.73480139      -0.00000046
Si      -2.03857655      -1.43269443       5.60469013
Si      -0.34618537       5.52950490       2.80614452
Si      -2.73651001       1.83248750       2.80614481
Si       3.20703239       0.61553883       2.79854501
Si       2.45011584       3.78949401      -0.00000030
14
Lattice="7.1881115317975945 0.7251020797316605 -0.017022834556034053 -2.288807899013386 6.852450572004064 0.017022225006872123 -3.2405461775550384 -3.2774192686057106 5.591750229568295" Properties=species:S:1:pos:R:3 unique_starting_index=10 config_type=initial n_minim_iter=8 pbc="T T T"
Si       2.66811010       3.90550497       2.88767586
Si      -0.77410549       0.75847558       2.70407373
Si       0.78804129       2.45055667       3.39232522
Si       3.57001348       6.02446954       2.19942406
Si      -0.26039587      -2.77591833       5.49143761
Si      -0.76574564       2.92342825       0.10031235
Si       1.61967294      -1.32097004       4.98678825
Si      -0.21056098       5.23498694       0.60496140
Si       3.70634213       5.73244787      -0.00000046
Si      -2.04431719      -1.42726079       5.59175008
Si      -0.34688963       5.52700861       2.80438593
Si      -2.73608011       1.83174535       2.80438622
Si       3.19932319       0.61933483       2.78736354
Si       2.44893721       3.78767107      -0.00000030
14
Lattice="7.185672584119446 0.7310056505772582 -0.026621681716425028 -2.2824234557300267 6.852649337924372 0.02662107167638211 -3.249747407289333 -3.275796827415518 5.583263193518883" Properties=species:S:1:pos:R:3 unique_starting_index=10 config_type=initial n_minim_iter=9 pbc="T T T"
Si       2.66467281       3.91320063       2.88101039
Si      -0.77487834       0.76012187       2.70225216
Si       0.78675926       2.45602225       3.38436042
Si       3.57026798       6.03326833       2.19890183
Si      -0.26902078      -2.77365179       5.48057310
Si      -0.76539480       2.92421814       0.10268982
Si       1.60889277      -1.31647341       4.97722307
Si      -0.20729200       5.23472667       0.60603954
Si       3.70954633       5.73740368      -0.00000046
Si      -2.05239407      -1.42389936       5.58326304
Si      -0.34657035       5.53059132       2.80494183
Si      -2.73762649       1.83244254       2.80494213
Si       3.19450576       0.62464861       2.77832060
Si       2.45089367       3.79069706      -0.00000031
14
Lattice="7.175529970104643 0.7554196345838599 -0.0676487350375109 -2.2559976785223244 6.853419856793921 0.06764812297159083 -3.2888785001879737 -3.26835266197252 5.548101841722756" Properties=species:S:1:pos:R:3 unique_starting_index=10 config_type=initial n_minim_iter=10 pbc="T T T"
Si       2.64999698       3.94529792       2.85339433
Si      -0.77871677       0.76735597       2.69470687
Si       0.78076589       2.47889821       3.35150405
Si       3.57074043       6.06982001       2.19659684
Si      -0.30590053      -2.76348747       5.43493360
Si      -0.76383825       2.92738751       0.11316796
Si       1.56333056      -1.29708776       4.93682389
Si      -0.19376316       5.23376296       0.61127737
Si       3.72265056       5.75767145      -0.00000046
Si      -2.08680523      -1.40915508       5.54810169
Si      -0.34567329       5.54591152       2.80787468
Si      -2.74462828       1.83554589       2.80787498
Si       3.17395164       0.64689228       2.74022640
Si       2.45902331       3.80327084      -0.00000031
14
Lattice="7.16667979027478 0.7804832377789679 -0.11615959967837637 -2.2295099310338338 6.855635558495831 0.11615898541806959 -3.33498725909008 -3.257882301897702 5.513632042969885" Properties=species:S:1:pos:R:3 unique_starting_index=10 config_type=initial n_minim_iter=11 pbc="T T T"
Si       2.63310321       3.98043027       2.82552954
Si      -0.78585493       0.77683930       2.68810185
Si       0.77113011       2.50430987       3.31926053
Si       3.56939679       6.10921183       2.19437056
Si      -0.34936681      -2.74992300       5.38683826
Si      -0.76210120       2.93106704       0.12679351
Si       1.51260629      -1.27380260       4.89310727
Si      -0.18018306       5.23481330       0.62052419
Si       3.73629444       5.77877388      -0.00000046
Si      -2.12755349      -1.39039384       5.51363189
Si      -0.34708071       5.56525125       2.81489521
Si      -2.75538990       1.84041788       2.81489551
Si       3.15068097       0.67116884       2.69873607
Si       2.46804269       3.81722074      -0.00000031
14
Lattice="7.1577136356997375 0.8062570333299 -0.17513572985294631 -2.2023269592052688 6.858036969511379 0.1751351133261858 -3.389988601556449 -3.2422976076972074 5.479182721385065" Properties=species:S:1:pos:R:3 unique_starting_index=10 config_type=initial n_minim_iter=12 pbc="T T T"
Si       2.61227495       4.01867032       2.79688288
Si      -0.79743703       0.78912450       2.68229920
Si       0.75635034       2.53278978       3.28730680
Si       3.56464889       6.15118229       2.19187496
Si      -0.40186102      -2.73076770       5.33432288
Si      -0.75987409       2.93481869       0.14485957
Si       1.45406358      -1.24488717       4.84389895
Si      -0.16657332       5.23705491       0.63528319
Si       3.74991985       5.79984775      -0.00000047
Si      -2.17672725      -1.36579587       5.47918257
Si      -0.35184429       5.58838945       2.82715861
Si      -2.77057246       1.84744146       2.82715891
Si       3.12289888       0.69834661       2.65202334
Si       2.47750365       3.83185362      -0.00000031
14
Lattice="7.152361451521106 0.8335874683648175 -0.24881651070088395 -2.175207669604774 6.8643728266218025 0.24881589146595895 -3.459247899880436 -3.2213876328517395 5.452030673209609" Properties=species:S:1:pos:R:3 unique_starting_index=10 config_type=initial n_minim_iter=13 pbc="T T T"
Si       2.58726815       4.06345689       2.77090720
Si      -0.81559239       0.80561128       2.68112282
Si       0.73498893       2.56711242       3.26008302
Si       3.55722245       6.20036516       2.19194669
Si      -0.46709394      -2.70527437       5.28273009
Si      -0.75734695       2.94037140       0.16930030
Si       1.38518528      -1.20892990       4.79355427
Si      -0.15300801       5.24357782       0.65847582
Si       3.76581869       5.82443782      -0.00000047
Si      -2.23898395      -1.33405525       5.45203052
Si      -0.36160424       5.61950515       2.85042298
Si      -2.79320329       1.85865030       2.85042328
Si       3.09056109       0.73015055       2.60160693
Si       2.48886102       3.84941960      -0.00000031
14
Lattice="7.13766941678806 0.8567138077075168 -0.34009592229709307 -2.14808899528407 6.860466262744644 0.34009530151610157 -3.537650204993753 -3.1843233827309083 5.417640124261853" Properties=species:S:1:pos:R:3 unique_starting_index=10 config_type=initial n_minim_iter=14 pbc="T T T"
Si       2.54997360       4.10495743       2.74002634
Si      -0.84084435       0.82569849       2.67761313
Si       0.70275059       2.60208208       3.22924283
Si       3.53636650       6.24160262       2.18839632
Si      -0.54542888      -2.66520054       5.21638542
Si      -0.75463014       2.94166797       0.20125443
Si       1.30179413      -1.16232519       4.72716893
Si      -0.14226058       5.24294392       0.69047061
Si       3.77424174       5.83746542      -0.00000047
Si      -2.31230330      -1.28912941       5.41763997
Si      -0.38013581       5.64708112       2.87886741
Si      -2.82082140       1.87217250       2.87886771
Si       3.04655463       0.76417545       2.53877195
Si       2.49564029       3.85990483      -0.00000031
14
Lattice="7.16899763577497 0.8894969088306495 -0.4592766460570841 -2.1310511874863867 6.902488918109651 0.4592760192586107 -3.6617341433073687 -3.157134830553006 5.418440540973327" Properties=species:S:1:pos:R:3 unique_starting_index=10 config_type=initial n_minim_iter=15 pbc="T T T"
Si       2.52007404       4.18244285       2.72528734
Si      -0.88199814       0.85742187       2.69315254
Si       0.66373774       2.66308337       3.21996627
Si       3.53228693       6.33305615       2.19847329
Si      -0.64971660      -2.62940726       5.17273468
Si      -0.75490791       2.96325164       0.24570558
Si       1.20661970      -1.11004778       4.67805574
Si      -0.13124654       5.27960318       0.74038421
Si       3.80978721       5.89244214      -0.00000047
Si      -2.42246008      -1.24040029       5.41844039
Si      -0.40874681       5.72021720       2.93885797
Si      -2.87618012       1.90393897       2.93885828
Si       3.01163329       0.81188060       2.47958179
Si       2.52045830       3.89828982      -0.00000031
14
Lattice="7.157852198846122 0.8877693864207091 -0.4723182734989424 -2.12805238648068 6.891616371761037 0.47231764771403606 -3.667305182140271 -3.1445991910267894 5.40865845594767" Properties=species:S:1:pos:R:3 unique_starting_index=10 config_type=initial n_minim_iter=16 pbc="T T T"
Si       2.50971503       4.17986165       2.71872316
Si      -0.88567160       0.85945176       2.68993463
Si       0.65646407       2.66327854       3.21334108
Si       3.52173238       6.32643894       2.19531640
Si      -0.65939684      -2.61833642       5.15810491
Si      -0.75455723       2.95890328       0.25055326
Si       1.19385411      -1.10175331       4.66348700
Si      -0.13216140       5.27130186       0.74517087
Si       3.80341558       5.88258741      -0.00000047
Si      -2.42975333      -1.23052833       5.40865830
Si      -0.41384460       5.71515339       2.94048774
Si      -2.87778068       1.90428418       2.94048805
Si       3.00116999       0.81402884       2.46816994
Si       2.51645338       3.89209558      -0.00000031
14
Lattice="7.144443475155392 0.8879087305504142 -0.5014483543027991 -2.12242231935774 6.879446097499185 0.5014477294856786 -3.6859867318077257 -3.1239904157781284 5.395418327883435" Properties=species:S:1:pos:R:3 unique_starting_index=10 config_type=initial n_minim_iter=17 pbc="T T T"
Si       2.49218849       4.18245304       2.70856355
Si      -0.89479709       0.86514154       2.68685412
Si       0.64236978       2.66867964       3.20378971
Si       3.50598182       6.32438078       2.19162764
Si      -0.68243099      -2.59896817       5.13383930
Si      -0.75390215       2.95442502       0.26157875
Si       1.16738773      -1.08519477       4.63861313
Si      -0.13265990       5.26254061       0.75680461
Si       3.79715402       5.87290291      -0.00000047
Si      -2.44982059      -1.21206277       5.39541817
Si      -0.42383210       5.71401848       2.94843272
Si      -2.88486538       1.90763891       2.94843303
Si       2.98303812       0.82117544       2.44698483
Si       2.51270612       3.88629985      -0.00000031
14
Lattice="7.143266514502412 0.8913435442186946 -0.5256357892204457 -2.11880706863129 6.879782487413448 0.525635164099964 -3.70685000158773 -3.113175013160313 5.392009621328527" Properties=species:S:1:pos:R:3 unique_starting_index=10 config_type=initial n_minim_iter=18 pbc="T T T"
Si       2.48244040       4.19171703       2.70411717
Si      -0.90321184       0.87086960       2.68789179
Si       0.63246370       2.67740819       3.20052612
Si       3.49958192       6.33351623       2.19148252
Si      -0.70273756      -2.58746324       5.12107890
Si      -0.75350184       2.95521566       0.27093044
Si       1.14723914      -1.07315440       4.62466995
Si      -0.13183615       5.26369505       0.76733909
Si       3.79876357       5.87539233      -0.00000047
Si      -2.46974409      -1.19979387       5.39200947
Si      -0.43101780       5.72181896       2.95882208
Si      -2.89381959       1.91270411       2.95882239
Si       2.97252098       0.82907849       2.43318676
Si       2.51403186       3.88835031      -0.00000031
14
Lattice="7.14122708853367 0.9136394759174199 -0.686247640558251 -2.097638324855088 6.887073089586156 0.6862470130577875 -3.847563589623999 -3.0431733012234163 5.37900859652859" Properties=species:S:1:pos:R:3 unique_starting_index=10 config_type=initial n_minim_iter=19 pbc="T T T"
Si       2.41951575       4.25524153       2.68005868
Si      -0.96017265       0.90956081       2.69894926
Si       0.56702622       2.73672525       3.18503564
Si       3.45894492       6.39777577       2.19397197
Si      -0.83755602      -2.51264731       5.04532993
Si      -0.75153112       2.96256723       0.33367839
Si       1.01493351      -0.99413103       4.54035296
Si      -0.12705992       5.27506484       0.83865505
Si       3.81171878       5.89542962      -0.00000047
Si      -2.60361834      -1.11921404       5.37900844
Si      -0.47983378       5.77741099       3.03262749
Si      -2.95564901       1.94816878       3.03262780
Si       2.90523625       0.88155590       2.34638032
Si       2.52428707       3.90421163      -0.00000031
14
Lattice="7.122162085681273 0.9497949786659976 -0.8863760166785174 -2.056843615506699 6.884526035593095 0.8863753864745423 -4.019308741405948 -2.9559595840750768 5.37505217923566" Properties=species:S:1:pos:R:3 unique_starting_index=10 config_type=initial n_minim_iter=20 pbc="T T T"
Si       2.34068852       4.33083573       2.65862623
Si      -1.03063215       0.95591587       2.71642529
Si       0.48514489       2.80803174       3.17651847
Si       3.40755857       6.47319453       2.19853272
Si      -1.00958174      -2.41413685       4.96076356
Si      -0.74111442       2.96694762       0.41428834
Si       0.84596189      -0.89133285       4.44287132
Si      -0.11398666       5.28398997       0.93218027
Si       3.82655058       5.91836937      -0.00000048
Si      -2.76809916      -1.02076486       5.37505202
Si      -0.53297867       5.83881514       3.13071347
Si      -3.02295615       1.98766877       3.13071378
Si       2.81451841       0.95049006       2.24433792
Si       2.53589711       3.92216841      -0.00000032
14
Lattice="7.114085285759728 0.984146739334952 -1.1179689098146477 -2.0222033476219172 6.891258904943228 1.117968276305766 -4.220941180870615 -2.8547228322517317 5.3671691229237" Properties=species:S:1:pos:R:3 unique_starting_index=10 config_type=initial n_minim_iter=21 pbc="T T T"
Si       2.25009535       4.41859725       2.63460117
Si      -1.11505471       1.01055807       2.73256729
Si       0.38831399       2.89180863       3.16764416
Si       3.34862587       6.56159784       2.19952398
Si      -1.20555303      -2.30205389       4.85716759
Si      -0.73354707       2.97656139       0.51000125
Si       0.65622834      -0.77526526       4.32412460
Si      -0.10534571       5.30092726       1.04304393
Si       3.84511088       5.94707582      -0.00000048
Si      -2.96156893      -0.90690325       5.36716897
Si      -0.60183072       5.91544928       3.24256839
Si      -3.10797403       2.03929988       3.24256870
Si       2.71548301       1.02728466       2.12459995
Si       2.55000050       3.94398153      -0.00000032
14
Lattice="7.112365087000309 1.160676299388118 -1.9388095995067087 -1.8605193485114497 6.9621388157831685 1.9388089460958569 -4.967515677212523 -2.547438871880198 5.378455227749455" Properties=species:S:1:pos:R:3 unique_starting_index=10 config_type=initial n_minim_iter=22 pbc="T T T"
Si       1.95199341       4.78451292       2.58463391
Si      -1.40560705       1.19617510       2.79382064
Si       0.07208554       3.21581852       3.15807629
Si       3.18726248       6.96089640       2.22037791
Si      -1.90820008      -1.93322173       4.51364365
Si      -0.69544903       3.04187866       0.86481129
Si      -0.02829221      -0.36452733       3.94020126
Si      -0.03647282       5.39997248       1.43825336
Si       3.95952733       6.12403906      -0.00000049
Si      -3.66425076      -0.53173230       5.37845507
Si      -0.80873767       6.23682981       3.65863176
Si      -3.40432099       2.22234719       3.65863209
Si       2.37783382       1.32564164       1.71982265
Si       2.63347519       4.07308842      -0.00000033
14
Lattice="7.496040370972224 1.2240830774000664 -1.6216998821454573 -1.960160444209527 7.338036105830156 1.6216991933963567 -4.886454226813467 -2.911323388113794 5.863484231730771" Properties=species:S:1:pos:R:3 unique_starting_index=10 config_type=initial n_minim_iter=23 pbc="T T T"
Si       2.23645164       4.92917346       2.86137197
Si      -1.30937199       1.15105836       3.00211154
Si       0.27404335       3.25917565       3.44281422
Si       3.50901129       7.23827594       2.42066893
Si      -1.66620285      -2.26252760       5.12300392
Si      -0.72996536       3.20282781       0.74048000
Si       0.29620544      -0.59252979       4.54156167
Si      -0.01246872       5.67772941       1.32192192
Si       4.17456610       6.45663074      -0.00000052
Si      -3.51531614      -0.79064015       5.86348406
Si      -0.67802353       6.45937461       3.74259137
Si      -3.41047544       2.23320293       3.74259171
Si       2.67668747       1.27823283       2.12089200
Si       2.78001555       4.29973642      -0.00000035
14
Lattice="7.061322310532298 1.1125278002169667 -1.5021938495090457 -1.8834780059529408 6.895832322207823 1.5021932053051161 -4.566519494514402 -2.725554410066377 5.496641172558856" Properties=species:S:1:pos:R:3 unique_starting_index=10 config_type=initial n_minim_iter=24 pbc="T T T"
Si       2.09757018       4.60575083       2.68390558
Si      -1.22737001       1.07744683       2.81273491
Si       0.25736162       3.04622087       3.22756514
Si       3.28356242       6.76767622       2.26907503
Si      -1.53330504      -2.13154844       4.80995877
Si      -0.70316766       3.00978217       0.68668212
Si       0.30690352      -0.57201849       4.26629922
Si      -0.03625579       5.32791290       1.23034136
Si       3.90285873       6.03639205      -0.00000048
Si      -3.28266703      -0.73987228       5.49664101
Si      -0.65555210       6.05919707       3.49941687
Si      -3.21439014       2.10154686       3.49941719
Si       2.53060776       1.17816951       1.99722350
Si       2.60017688       4.02158729      -0.00000032
14
Lattice="7.042351837638638 1.1453263369052296 -1.4699619726470399 -1.845783338972265 6.89199373109351 1.4699613261135303 -4.544535969212055 -2.7603010524927014 5.439489818071035" Properties=species:S:1:pos:R:3 unique_starting_index=10 config_type=initial n_minim_iter=25 pbc="T T T"
Si       2.11925516       4.61334230       2.65898853
Si      -1.20736340       1.06559038       2.78050061
Si       0.28082047       3.04141131       3.19395802
Si       3.31025667       6.78130787       2.24553079
Si      -1.51745682      -2.15314065       4.76526472
Si      -0.68865413       3.00958599       0.67422480
Si       0.32097787      -0.58120965       4.23029524
Si      -0.00970570       5.33118857       1.20919398
Si       3.91704277       6.05832993      -0.00000049
Si      -3.25573225      -0.76696102       5.43948966
Si      -0.61649180       6.05416650       3.45472525
Si      -3.18482125       2.08183633       3.45472557
Si       2.53675210       1.18436858       1.98476376
Si       2.60958220       4.03613412      -0.00000032
