14
Lattice="6.390468411704811 1.4084356992213714 -1.8625855919686967 0.2587104942399178 5.707056310971864 0.5717626952432036 -5.133080392838839 -2.81509402531896 9.242433603936792" Properties=species:S:1:pos:R:3 unique_starting_index=128 config_type=initial n_minim_iter=1 energy=-2278.248382580143 free_energy=-2278.248382580143 pbc="T T T"
Si      -4.82658922      -3.27254707       8.55655232
Si       1.57757443       1.43451969       7.39310358
Si      -1.29254707       3.48671934       6.02166687
Si       3.34597667       1.92853473       2.11076840
Si      -0.00429727       3.61244374       8.89880648
Si       0.43471456       1.84014361       2.20315831
Si       1.81035109       3.59896694       3.05614598
Si      -1.51667683      -0.47073774       7.13706504
Si       3.02243430       5.14506787      -0.09503212
Si      -0.62648213       0.64434131       4.01162741
Si       2.16668126       5.77744172       2.07305499
Si      -0.42646678       1.37986377       6.22607411
Si       0.49572208      -1.41341563       4.54715742
Si       2.71364910       2.77944706      -0.04209384
14
Lattice="6.3918474761856245 1.4132322491829121 -1.8543907289634063 0.2508711484680626 5.723757707683472 0.540091278604021 -5.145535573147395 -2.856614174712101 9.138689761488234" Properties=species:S:1:pos:R:3 unique_starting_index=128 config_type=initial n_minim_iter=2 stress="-0.002184812761319264 0.0006624690149488066 0.0014289610999321338 0.0006624690149488066 -0.000535057820300163 -0.0010699544773438829 0.0014289610999321338 -0.0010699544773438829 -0.004488794855763672" pbc="T T T"
Si      -4.83614217      -3.31084140       8.46006089
Si       1.56567286       1.40781968       7.28863549
Si      -1.31061238       3.47944233       5.92996268
Si       3.33870913       1.92247269       2.06766464
Si      -0.02351646       3.58806272       8.76631114
Si       0.42633922       1.83750292       2.16399822
Si       1.80156354       3.59606722       2.99943631
Si      -1.53038254      -0.50287346       7.04353339
Si       3.01587586       5.16012347      -0.11827490
Si      -0.63257325       0.62985611       3.95452165
Si       2.15846889       5.78385299       2.01822904
Si      -0.43725289       1.35635358       6.13764568
Si       0.49013662      -1.43851125       4.48864967
Si       2.70868425       2.78691353      -0.05793572
14
Lattice="6.458281676326166 1.3972345522263703 -1.9084658006739181 0.22377780158422025 5.76062442512677 0.5314022094050573 -5.254626231357072 -2.864281107012527 9.185841174485814" Properties=species:S:1:pos:R:3 unique_starting_index=128 config_type=initial n_minim_iter=3 stress="0.00847159463347855 -0.0009418616122194459 -0.0022898566132762664 -0.0009418616122194459 0.009695893886458511 -0.0019670070890239278 -0.0022898566132762664 -0.0019670070890239278 0.002056074691782858" pbc="T T T"
Si      -4.93076219      -3.31546021       8.49562238
Si       1.52261896       1.40619642       7.28627303
Si      -1.39751236       3.51240183       5.94106714
Si       3.33949763       1.91928255       2.03686509
Si      -0.11003882       3.60180472       8.77068976
Si       0.39692039       1.84735689       2.15621687
Si       1.78091170       3.60833273       2.98766698
Si      -1.60487788      -0.51624518       7.04969579
Si       3.02097966       5.18316585      -0.14491572
Si      -0.66858103       0.62732628       3.95127754
Si       2.14281870       5.80432592       1.99882699
Si      -0.49367631       1.35226373       6.14448082
Si       0.46387339      -1.45784429       4.47900538
Si       2.71435739       2.79979654      -0.08348649
14
Lattice="6.426247818320742 1.3528839721156234 -1.9358780122859185 0.20008335168590535 5.693797575101229 0.5483314064485096 -5.265117623234681 -2.7827519984627407 9.192206370752166" Properties=species:S:1:pos:R:3 unique_starting_index=128 config_type=initial n_minim_iter=4 stress="0.00233146473482572 -0.0028948381016561772 -0.004248849078301748 -0.0028948381016561772 -0.0036142613380900804 0.0008587093811140795 -0.004248849078301748 0.0008587093811140795 -0.0018148233367726383" pbc="T T T"
Si      -4.93203845      -3.22324581       8.48746295
Si       1.48220084       1.41597740       7.28787007
Si      -1.44899054       3.50823979       5.95610344
Si       3.29705513       1.89396264       2.02026119
Si      -0.16783198       3.58837685       8.77991902
Si       0.36686282       1.83293676       2.15383844
Si       1.74746947       3.56875458       2.99506336
Si      -1.63919960      -0.49264299       7.03625535
Si       2.98585025       5.11291723      -0.13809906
Si      -0.68177249       0.62688645       3.93809876
Si       2.10860510       5.72589973       2.01090351
Si      -0.52463506       1.34806906       6.14942826
Si       0.43985864      -1.43025258       4.45311475
Si       2.67880019       2.76649219      -0.09002566
14
Lattice="6.326560369685122 1.4108728022240087 -1.8775943079399655 0.24838540258601244 5.719114105835423 0.5514720183881101 -5.113471568172712 -2.8405047290465713 9.19253138707078" Properties=species:S:1:pos:R:3 unique_starting_index=128 config_type=initial n_minim_iter=5 stress="-0.003681407917795251 -0.0003677351838363116 0.0014616529177070526 -0.0003677351838363116 -1.0959862610308957e-05 0.0006049186895196508 0.0014616529177070526 0.0006049186895196508 -0.000881199113894445" pbc="T T T"
Si      -4.78926296      -3.26701358       8.47399033
Si       1.56948772       1.44201968       7.36714230
Si      -1.35450850       3.51902141       5.97781812
Si       3.28376904       1.93069898       2.06666601
Si      -0.03645754       3.59882148       8.84259231
Si       0.38911824       1.84149914       2.16669765
Si       1.79388563       3.59425453       3.04487852
Si      -1.55439871      -0.52336697       7.05425232
Si       2.98386138       5.16200466      -0.10037058
Si      -0.61712471       0.61145087       3.93636500
Si       2.15680515       5.75451371       2.05472406
Si      -0.43413136       1.33754139       6.18837903
Si       0.46715668      -1.43864434       4.46818492
Si       2.65040946       2.81000714      -0.06954077
14
Lattice="6.366564654285796 1.4331804205049512 -1.8897443810689658 0.27023121174804704 5.696342851286915 0.5390267928274023 -5.162268905078324 -2.8684376669341827 9.208240683429185" Properties=species:S:1:pos:R:3 unique_starting_index=128 config_type=initial n_minim_iter=6 stress="0.000979907851050105 0.0015767658040531476 0.0005830216251166699 0.0015767658040531476 -0.0012581189749830918 -0.0004875148549722472 0.0005830216251166699 -0.0004875148549722472 -0.00030806908599708186" pbc="T T T"
Si      -4.83587782      -3.28420830       8.48402104
Si       1.57130537       1.43276422       7.36951482
Si      -1.36392224       3.48380135       5.97180342
Si       3.30378163       1.93195786       2.05653870
Si      -0.03181630       3.56676404       8.84213254
Si       0.39260504       1.83008288       2.16246023
Si       1.81680252       3.57777222       3.03879897
Si      -1.57823410      -0.54455164       7.06121260
Si       3.02069094       5.15452808      -0.11254851
Si      -0.62127893       0.59552651       3.93308779
Si       2.19072727       5.73200189       2.04633993
Si      -0.43818077       1.31607837       6.18748874
Si       0.45542625      -1.44350359       4.46724836
Si       2.67689907       2.81154520      -0.08376770
14
Lattice="6.369607748752239 1.4117947315410215 -1.9655752835363756 0.24293518560778443 5.683236164008079 0.5238462892691951 -5.237368860267055 -2.8681123627089127 9.303170056867707" Properties=species:S:1:pos:R:3 unique_starting_index=128 config_type=initial n_minim_iter=7 stress="0.009616618985848134 0.00010871985366285742 -0.0032174554574265083 0.00010871985366285742 0.002507820458666013 -0.0009587730969627917 -0.0032174554574265083 -0.0009587730969627917 0.004514479639032453" pbc="T T T"
Si      -4.89295670      -3.23233726       8.52955279
Si       1.46526691       1.45331383       7.41508140
Si      -1.49206845       3.43850725       5.97749380
Si       3.26664146       1.91531185       2.00696412
Si      -0.11253034       3.54599638       8.90109166
Si       0.34762252       1.81301683       2.16195920
Si       1.80054454       3.53551021       3.04298498
Si      -1.67630887      -0.56505840       7.11788620
Si       3.01554123       5.14872800      -0.13480384
Si      -0.65601836       0.57192651       3.92512969
Si       2.17695843       5.68301160       2.06637955
Si      -0.49662562       1.28687399       6.20909445
Si       0.38994742      -1.48050854       4.45489885
Si       2.68157834       2.81105456      -0.14986039
14
Lattice="6.1858229943293805 1.4441306357705264 -1.970842513294531 0.26581472282777807 5.668557442350234 0.5193110604292461 -5.09432884265098 -2.8988872182306302 9.33918291018563" Properties=species:S:1:pos:R:3 unique_starting_index=128 config_type=initial n_minim_iter=8 stress="0.0014076247888370487 0.001366346046471082 -0.00011020727672694199 0.001366346046471082 -0.0008776772827130832 -0.00023995817940203145 -0.00011020727672694199 -0.00023995817940203145 -0.0002896091916817487" pbc="T T T"
Si      -4.74366621      -3.17052554       8.49066664
Si       1.40307957       1.53677711       7.50987369
Si      -1.52693624       3.36653597       5.95854319
Si       3.18054510       1.93698315       1.97718936
Si      -0.04758498       3.54661776       8.98807193
Si       0.32373720       1.79219454       2.16505824
Si       1.82002635       3.49931108       3.08870660
Si      -1.66604405      -0.60521826       7.14507938
Si       2.98270235       5.17856018      -0.09451705
Si      -0.62290451       0.53652055       3.89545339
Si       2.19633040       5.63276522       2.15065312
Si      -0.46954465       1.24842329       6.22120985
Si       0.32496832      -1.52719820       4.42493275
Si       2.63345838       2.84397415      -0.18659307
14
Lattice="6.001908104915505 1.4421499405392448 -1.9807296328658788 0.25124471398494136 5.675827060370573 0.5094684768102663 -4.9427640870198 -2.9167591745689134 9.384900847816871" Properties=species:S:1:pos:R:3 unique_starting_index=128 config_type=initial n_minim_iter=9 stress="-0.008746181998301393 -0.0009216797087930881 0.002571183859449379 -0.0009216797087930881 -0.0030900471606942572 0.0006204533125625585 0.002571183859449379 0.0006204533125625585 -0.001536029670725877" pbc="T T T"
Si      -4.58847190      -3.10147944       8.47261518
Si       1.32708237       1.61126069       7.59837127
Si      -1.58014931       3.30872682       5.93824836
Si       3.09497536       1.94294232       1.93718722
Si      -0.00881740       3.56067878       9.06653935
Si       0.29804014       1.76945741       2.16639796
Si       1.80952256       3.46732688       3.12648377
Si      -1.63393872      -0.64840577       7.15394942
Si       2.91980774       5.20775716      -0.05406882
Si      -0.60011672       0.51113415       3.88582257
Si       2.17597990       5.59406760       2.22106619
Si      -0.46960437       1.21081729       6.22411514
Si       0.26492403      -1.59073001       4.41416073
Si       2.56285334       2.86925891      -0.19920190
14
Lattice="5.936230162133734 1.4521456919669338 -1.9869949731331091 0.2528753475703058 5.697614799525914 0.5119567848253361 -4.903698283119491 -2.925941296880858 9.377186930183049" Properties=species:S:1:pos:R:3 unique_starting_index=128 config_type=initial n_minim_iter=10 stress="-0.010921136729127284 -0.0007712792273858299 0.002661767586092868 -0.0007712792273858299 -0.0024255009631246275 0.0028598818078481958 0.002661767586092868 0.0028598818078481958 -0.003689354230847721" pbc="T T T"
Si      -4.54746065      -3.05666637       8.43436450
Si       1.27552216       1.68551990       7.61866266
Si      -1.62774808       3.28566962       5.90705247
Si       3.06779676       1.96243986       1.89535617
Si       0.01041993       3.60434694       9.07636324
Si       0.28922262       1.76039764       2.15904402
Si       1.81533649       3.46918810       3.13843882
Si      -1.62737395      -0.66864566       7.12101556
Si       2.91162891       5.24308176      -0.01776228
Si      -0.59374012       0.50587516       3.87658293
Si       2.18532984       5.59572274       2.25851321
Si      -0.48936344       1.20181158       6.19668379
Si       0.21455808      -1.62790319       4.39436603
Si       2.54051828       2.89743593      -0.19364640
14
Lattice="5.937362692751441 1.452331085227482 -1.9978236015216702 0.23980564828142067 5.703032596020434 0.47381060547726955 -4.900703763386735 -2.98132837360782 9.402713486867942" Properties=species:S:1:pos:R:3 unique_starting_index=128 config_type=initial n_minim_iter=11 stress="-0.006336149921717223 -0.0010370760957793248 0.002017968819670495 -0.0010370760957793248 -0.0008183997331349882 0.0003439461837244574 0.002017968819670495 0.0003439461837244574 -0.0024599684710647357" pbc="T T T"
Si      -4.54736396      -3.08253407       8.45939268
Si       1.25459328       1.66686017       7.61885484
Si      -1.66405040       3.23372262       5.87431224
Si       3.07522300       1.94768153       1.86012393
Si       0.02154914       3.56835985       9.05253433
Si       0.29312616       1.73220224       2.14291234
Si       1.81897063       3.44578939       3.12210564
Si      -1.60974280      -0.72842926       7.10339851
Si       2.91311896       5.24469422      -0.02827944
Si      -0.58907841       0.48136661       3.89280299
Si       2.19099277       5.57907393       2.23175451
Si      -0.51357640       1.15437974       6.17587327
Si       0.19201283      -1.67958522       4.41768804
Si       2.53212608       2.90511786      -0.19350917
14
Lattice="5.97911029908842 1.45767519858106 -2.0112382669415183 0.24113171157398064 5.719289416559088 0.4725978598843194 -4.952829744136525 -2.9905310861034753 9.406606619823936" Properties=species:S:1:pos:R:3 unique_starting_index=128 config_type=initial n_minim_iter=12 stress="0.0013751785519375511 5.005042092253456e-05 -0.0002306621584786753 5.005042092253456e-05 0.0012768011727024738 0.0012033958461651548 -0.0002306621584786753 0.0012033958461651548 -0.002054875816746801" pbc="T T T"
Si      -4.60214919      -3.08343322       8.47919063
Si       1.23258125       1.68907821       7.60391031
Si      -1.70128798       3.23295412       5.86836460
Si       3.09809700       1.95386824       1.83473200
Si       0.01544336       3.59642462       9.02073937
Si       0.30157073       1.71943952       2.13099192
Si       1.82398161       3.46355293       3.11668726
Si      -1.61199195      -0.74576818       7.07919490
Si       2.93798750       5.25279597      -0.01881631
Si      -0.58764000       0.48362790       3.91599000
Si       2.21014886       5.59900196       2.21638205
Si      -0.55300028       1.15467746       6.16268710
Si       0.16371762      -1.69181570       4.43139112
Si       2.53948033       2.91989217      -0.18349573
14
Lattice="5.953375822992501 1.4662639148965169 -2.0444678472104925 0.2377197640896804 5.7100290733790375 0.44134795918781644 -4.948867227495598 -3.041870061986645 9.488330536472585" Properties=species:S:1:pos:R:3 unique_starting_index=128 config_type=initial n_minim_iter=13 stress="0.002045447473478899 0.0008094440024239473 -0.0008656331183319896 0.0008094440024239473 0.00022621560351875547 -0.0016184517538292982 -0.0008656331183319896 -0.0016184517538292982 0.0012689003346034425" pbc="T T T"
Si      -4.59801536      -3.10363774       8.55000062
Si       1.19527488       1.67137094       7.64737383
Si      -1.74062810       3.18236609       5.87800234
Si       3.08202012       1.94198336       1.81087570
Si       0.01223826       3.55428648       9.04547388
Si       0.29588115       1.68732785       2.12367187
Si       1.81764172       3.43965018       3.12265443
Si      -1.61492531      -0.80568924       7.11632789
Si       2.93277913       5.24561323      -0.03579548
Si      -0.57754501       0.45312034       3.94132178
Si       2.21286610       5.57050991       2.20462498
Si      -0.57741669       1.10974270       6.18912287
Si       0.13170097      -1.73059092       4.46557403
Si       2.52257865       2.93014340      -0.21333473
14
Lattice="5.946997194833925 1.442298760247089 -2.0517091209983715 0.21478195233017214 5.716211822418415 0.44386362254883277 -4.93923515296834 -3.023559481435065 9.517356617716947" Properties=species:S:1:pos:R:3 unique_starting_index=128 config_type=initial n_minim_iter=14 stress="0.006001688979631934 -4.299825935000073e-05 -0.0005862352196829713 -4.299825935000073e-05 -0.0005119658025296679 -0.00118486668241372 -0.0005862352196829713 -0.00118486668241372 0.0032886605394300676" pbc="T T T"
Si      -4.59353003      -3.07499217       8.59132592
Si       1.17301000       1.68537958       7.67234452
Si      -1.78305467       3.19352550       5.89880673
Si       3.07588083       1.93285386       1.80620469
Si       0.01041436       3.57597846       9.04251998
Si       0.29341855       1.66067381       2.11449049
Si       1.80247091       3.44877082       3.14521138
Si      -1.60064710      -0.82322879       7.13233073
Si       2.91998800       5.22956552      -0.02040923
Si      -0.54904172       0.45177267       3.96982600
Si       2.20657123       5.56769609       2.20651949
Si      -0.60422679       1.11386940       6.21673355
Si       0.11991661      -1.73762821       4.49019031
Si       2.49888626       2.93697419      -0.23008699
14
Lattice="5.894509147665345 1.4438597456715376 -2.08435391314452 0.20577910986347422 5.749061206127167 0.450343601571403 -4.933128327515196 -3.0253825149807065 9.556626828348204" Properties=species:S:1:pos:R:3 unique_starting_index=128 config_type=initial n_minim_iter=15 stress="0.0017459495048192772 0.0012670465165310417 -0.003506621174844056 0.0012670465165310417 0.0011996607390591528 -0.0006761489029157054 -0.003506621174844056 -0.0006761489029157054 0.0028063230902257786" pbc="T T T"
Si      -4.59053224      -3.06510201       8.63880436
Si       1.10698029       1.71818309       7.68689242
Si      -1.82813370       3.21721054       5.92682409
Si       3.03528286       1.95083075       1.78750514
Si      -0.02091539       3.62151069       9.03310701
Si       0.28087512       1.64174221       2.10101318
Si       1.76717965       3.48241579       3.16061468
Si      -1.61378715      -0.84071695       7.15807486
Si       2.89617881       5.24965680      -0.01889507
Si      -0.52963858       0.45477699       3.99328232
Si       2.18631411       5.59749732       2.20363352
Si      -0.64792350       1.13264858       6.24652264
Si       0.08363060      -1.74566861       4.50503651
Si       2.46377617       2.96369933      -0.26847223
14
Lattice="5.859445253112496 1.4027855769953514 -2.034035480996689 0.1765197739866752 5.750693802906814 0.4664676039872386 -4.839011417200603 -2.973398843358042 9.510448331236567" Properties=species:S:1:pos:R:3 unique_starting_index=128 config_type=initial n_minim_iter=16 stress="0.0021235840585716098 -0.0004160192634514213 0.0017356526852516589 -0.0004160192634514213 -0.0007026529110892316 0.0003604177648786676 0.0017356526852516589 0.0003604177648786676 0.0011674123936539305" pbc="T T T"
Si      -4.50546026      -3.01612742       8.60682843
Si       1.14211254       1.72626998       7.70246436
Si      -1.81895968       3.24738039       5.93208811
Si       3.02817474       1.94842976       1.81664489
Si       0.03223327       3.64502623       9.01766282
Si       0.28451452       1.62033427       2.09194189
Si       1.76393895       3.49094634       3.19310617
Si      -1.56105709      -0.82384872       7.15977746
Si       2.86806220       5.22747842       0.01384525
Si      -0.47375065       0.46692174       4.00038357
Si       2.17564597       5.58871672       2.22840315
Si      -0.62098478       1.16067179       6.26275384
Si       0.12348796      -1.73201602       4.50850828
Si       2.43540200       2.95294909      -0.27617210
14
Lattice="5.813409996590792 1.3933229198696 -2.058429258438543 0.16218021120054976 5.762485435660038 0.469062065413765 -4.833940288296066 -2.962870627571507 9.515684133697054" Properties=species:S:1:pos:R:3 unique_starting_index=128 config_type=initial n_minim_iter=17 stress="-0.004486283228612565 -0.0002298205048818633 -0.0013051890331393086 -0.0002298205048818633 0.00043299940581487627 -0.00015752961036567662 -0.0013051890331393086 -0.00015752961036567662 -0.0025749703882993087" pbc="T T T"
Si      -4.49266595      -3.01151876       8.60729459
Si       1.09538590       1.71308419       7.69063501
Si      -1.84053541       3.26326926       5.94996120
Si       2.98426749       1.97308923       1.80036698
Si      -0.01107588       3.64545573       9.00351369
Si       0.26146557       1.61036669       2.07608151
Si       1.72879832       3.49794786       3.18208025
Si      -1.60354155      -0.80521290       7.17521171
Si       2.83633839       5.23766400      -0.01672729
Si      -0.47927035       0.47925259       4.00265829
Si       2.13532359       5.59315982       2.21533912
Si      -0.64902018       1.18195425       6.26789946
Si       0.11621158      -1.72474195       4.50054220
Si       2.41224860       2.94352904      -0.30956408
14
Lattice="5.782209366739182 1.384343170063219 -2.0349603033716583 0.16071739932862839 5.752992421542584 0.4815086569869712 -4.77091092827898 -2.9412354772871496 9.532281712904824" Properties=species:S:1:pos:R:3 unique_starting_index=128 config_type=initial n_minim_iter=18 stress="-0.0011731343797109185 0.0011030020548950126 0.0016485462226402555 0.0011030020548950126 3.753113958362044e-05 0.0013389915666956118 0.0016485462226402555 0.0013389915666956118 -0.0021000405963351484" pbc="T T T"
Si      -4.42186772      -2.97157899       8.60760473
Si       1.12348135       1.71686645       7.76440179
Si      -1.84264121       3.25109243       5.99275580
Si       2.98507708       2.01843414       1.79502873
Si       0.06195401       3.64858408       9.05114705
Si       0.26141702       1.56655272       2.06124818
Si       1.75216923       3.49162381       3.21918689
Si      -1.58789484      -0.78908344       7.18624049
Si       2.83721619       5.23342370       0.00231253
Si      -0.44328380       0.50003436       4.05802250
Si       2.15354146       5.57135259       2.24636075
Si      -0.64816601       1.19391316       6.29088916
Si       0.12836782      -1.72238482       4.53148544
Si       2.39254087       2.92875142      -0.28548589
14
Lattice="5.772799362456895 1.35878108630573 -2.0515476653554114 0.13381406902402798 5.7465321221368155 0.4690415543696068 -4.759788765334418 -2.9402228240191137 9.588949015871648" Properties=species:S:1:pos:R:3 unique_starting_index=128 config_type=initial n_minim_iter=19 stress="-0.00011706149898033463 0.0004631018003661548 0.0008961501659925186 0.0004631018003661548 0.00010842519670029857 -0.00039455947534590343 0.0008961501659925186 -0.00039455947534590343 -0.0008293534672168855" pbc="T T T"
Si      -4.40658554      -2.98163466       8.67347517
Si       1.11326947       1.65992460       7.79493206
Si      -1.86117428       3.25032165       6.03987891
Si       2.97395236       2.01852663       1.79111721
Si       0.05070501       3.61647895       9.05926777
Si       0.25136753       1.52633601       2.04825207
Si       1.72789683       3.48240489       3.22418779
Si      -1.59475965      -0.79723622       7.22231785
Si       2.81237918       5.20757885      -0.02787265
Si      -0.43228409       0.50551188       4.10898903
Si       2.12603868       5.55678219       2.21500522
Si      -0.67502558       1.19190859       6.32853779
Si       0.13917918      -1.72275673       4.57641516
Si       2.36620161       2.90892596      -0.29601061
14
Lattice="5.745799089361088 1.330678246524783 -2.0740970724815067 0.10639587407888972 5.7405439087893155 0.4672233994076014 -4.747971092011193 -2.921099424272575 9.638965099291994" Properties=species:S:1:pos:R:3 unique_starting_index=128 config_type=initial n_minim_iter=20 stress="-0.00029660245592466454 -0.0011434682354893209 -0.0008909384335472096 -0.0011434682354893209 -0.0007678174612901912 -0.0005178692337484325 -0.0008909384335472096 -0.0005178692337484325 0.0005910041703944172" pbc="T T T"
Si      -4.38708009      -2.94580197       8.70905572
Si       1.07404205       1.65174240       7.83867469
Si      -1.91145387       3.24784453       6.07421841
Si       2.95000338       2.01619742       1.77426938
Si       0.03405979       3.61363106       9.08131626
Si       0.23047892       1.48668150       2.04059210
Si       1.70746381       3.47176033       3.24290392
Si      -1.61384566      -0.80260001       7.25219853
Si       2.78561774       5.18812553      -0.03278017
Si      -0.42371872       0.50855487       4.13749543
Si       2.10518604       5.53382726       2.21469060
Si      -0.70523671       1.19160990       6.36198727
Si       0.12544783      -1.72921395       4.59581088
Si       2.33822102       2.90129648      -0.31617142
14
Lattice="5.751318456466811 1.3249459651492246 -2.084093095994205 0.1089525338917202 5.727908132097183 0.48630626072692973 -4.7554473586376105 -2.8912405176655676 9.692041603457458" Properties=species:S:1:pos:R:3 unique_starting_index=128 config_type=initial n_minim_iter=21 stress="0.0018351523514510003 -0.0011371727769580555 -0.002109542716678464 -0.0011371727769580555 0.00015409488311829723 0.0003553661642438407 -0.002109542716678464 0.0003553661642438407 0.005137616443909795" pbc="T T T"
Si      -4.37443731      -2.91622254       8.73595330
Si       1.06880224       1.63293152       7.90910224
Si      -1.92285442       3.26502738       6.14705557
Si       2.95857793       2.02188998       1.78829574
Si       0.05101450       3.63556144       9.12517812
Si       0.20742998       1.42836492       2.05584130
Si       1.71553724       3.48543277       3.28098223
Si      -1.64422654      -0.77746058       7.30169541
Si       2.78931355       5.17012733      -0.02853886
Si      -0.41722275       0.54131453       4.17861845
Si       2.12365415       5.53954223       2.21335964
Si      -0.70855006       1.21501231       6.42848093
Si       0.12489630      -1.69908959       4.61934228
Si       2.33538423       2.89657058      -0.31348712
