12
Lattice="4.548399999999999 4.023784099458292e-16 1.7757401915612994e-47 -2.2741999999999996 3.9390299465731395 1.5987583023560488e-45 3.3638015074755463e-31 -1.9420917058414758e-31 13.9665" Properties=species:S:1:pos:R:3 unique_starting_index=180 config_type=initial n_minim_iter=1 pbc="T T T"
Si       0.74080109       2.99736939      13.72208625
Si      -0.04880251       1.79879269       9.06658625
Si      -0.69199858       3.08189782       4.41108625
Si       1.39762439       2.09991459       8.45240150
Si       3.39396718       1.67869443       3.79690150
Si       2.03100843       0.16042094      13.10790150
Si       2.04458221       0.80792340       1.08483671
Si       1.95159108       1.76440812      10.39583671
Si       2.82642671       1.36669844       5.74033671
Si       3.81464438       0.25439673       4.39244609
Si       0.58719184       0.50825265      13.70344609
Si       2.42076378       3.17638058       9.04794609
12
Lattice="4.594525266050191 -1.1279761937832358e-16 -6.632020490844255e-32 -2.297262633025095 3.9789755987289217 -1.2930765845886833e-31 1.3614588860998343e-31 -7.7223569631471145e-31 14.040563526726167" Properties=species:S:1:pos:R:3 unique_starting_index=180 config_type=initial n_minim_iter=2 pbc="T T T"
Si       0.74977828       3.02621642      13.79559033
Si      -0.05137148       1.81654035       9.11540249
Si      -0.69840681       3.11519443       4.43521465
Si       1.41227333       2.12010416       8.49517757
Si       3.42719002       1.69585894       3.81498973
Si       2.05232454       0.16301251      13.17536541
Si       2.06556663       0.81634670       1.09132785
Si       1.97145630       1.78196908      10.45170354
Si       2.85476497       1.38065983       5.77151570
Si       3.85416857       0.25469382       4.41631051
Si       0.59074966       0.51382080      13.77668619
Si       2.44686966       3.21046099       9.09649835
12
Lattice="4.957602227145106 -7.068751883825048e-17 -4.82280208720634e-31 -2.4788011135725525 4.2934094705659716 -9.34977768249597e-31 -1.1180372104406627e-30 -4.392691395130561e-30 14.635200900120278" Properties=species:S:1:pos:R:3 unique_starting_index=180 config_type=initial n_minim_iter=3 pbc="T T T"
Si       0.82129298       3.25244932      14.38575851
Si      -0.07274387       1.95592423       9.50735821
Si      -0.74854911       3.37844540       4.62895791
Si       1.52783089       2.27839338       8.83840537
Si       3.68803221       1.83107243       3.96000507
Si       2.22054024       0.18394368      13.71680567
Si       2.23102918       0.88290394       1.14377621
Si       2.12790376       1.91982956      10.90057681
Si       3.07747040       1.49067599       6.02217651
Si       4.16591077       0.25561814       4.60776730
Si       0.61721753       0.55781584      14.36456790
Si       2.65327504       3.47997549       9.48616760
12
Lattice="5.202127033141142 -3.7316657092181487e-16 1.1638220304678117e-29 -2.6010635165705702 4.505174164414001 2.3324854444795313e-29 3.607382847272599e-29 1.0297514066043362e-28 15.243968053111734" Properties=species:S:1:pos:R:3 unique_starting_index=180 config_type=initial n_minim_iter=4 pbc="T T T"
Si       0.87044551       3.40506617      14.98761472
Si      -0.08741248       2.04881316       9.90629204
Si      -0.78303304       3.55646901       4.82496936
Si       1.60380898       2.38343402       9.19511740
Si       3.86327343       1.92451784       4.11379472
Si       2.33610813       0.19722232      14.27644008
Si       2.34327994       0.92786371       1.19620106
Si       2.23297708       2.01190236      11.35884643
Si       3.22693352       1.56540811       6.27752375
Si       4.37665651       0.25269901       4.80205037
Si       0.63157902       0.58852894      14.96469574
Si       2.79495502       3.66394622       9.88337306
12
Lattice="5.700956792306693 -5.81567903652372e-16 -1.1448485125145031e-27 -2.850478396153345 4.937173408015041 -2.2896097362967004e-27 -3.502969640921186e-27 -1.0113352492567e-26 16.09628809396287" Properties=species:S:1:pos:R:3 unique_starting_index=180 config_type=initial n_minim_iter=5 pbc="T T T"
Si       0.97946629       3.70714057      15.83704033
Si      -0.12973364       2.23536044      10.47161097
Si      -0.84973265       3.93184582       5.10618160
Si       1.76730759       2.59369483       9.68360136
Si       4.21303021       2.10979273       4.31817199
Si       2.57109739       0.23368586      15.04903072
Si       2.57003244       1.01725846       1.26715527
Si       2.44643384       2.20283081      11.99801400
Si       3.53496891       1.71708416       6.63258464
Si       4.80604489       0.24131616       5.08066437
Si       0.65644187       0.65435836      15.81152309
Si       3.08894842       4.04149890      10.44609373
12
Lattice="5.567206693198502 -7.922060223891546e-17 1.0808960147082456e-25 -2.783603346599251 4.821342424428661 2.1617928918891787e-25 3.316700877293991e-25 9.574479529386017e-25 15.622590041745227" Properties=species:S:1:pos:R:3 unique_starting_index=180 config_type=initial n_minim_iter=6 pbc="T T T"
Si       0.96201590       3.61362478      15.37392700
Si      -0.13512044       2.18139983      10.16639699
Si      -0.82689547       3.84766025       4.95886698
Si       1.72943907       2.52615808       9.39430390
Si       4.10660087       2.06052522       4.18677389
Si       2.51477009       0.23465914      14.60183391
Si       2.50934835       0.99245502       1.22689336
Si       2.38842043       2.15195550      11.64195339
Si       3.45304126       1.67693191       6.43442338
Si       4.69487685       0.22705085       4.93547934
Si       0.63279672       0.64193438      15.35053936
Si       3.02313647       3.95235721      10.14300935
12
Lattice="5.414056392952237 -1.0495299231814661e-15 -5.433238709577104e-24 -2.707028196476118 4.688710373818182 -1.0866477337630595e-23 -1.6668104463014282e-23 -4.811667408931528e-23 15.112966043123437" Properties=species:S:1:pos:R:3 unique_starting_index=180 config_type=initial n_minim_iter=7 pbc="T T T"
Si       0.94911807       3.50036044      14.87841095
Si      -0.15018617       2.11656980       9.84075560
Si      -0.79893190       3.76049052       4.80310025
Si       1.68884720       2.44252870       9.07605388
Si       3.97789650       2.00486145       4.03839853
Si       2.45434089       0.24132023      14.11370923
Si       2.44075181       0.96360381       1.18474967
Si       2.32115767       2.09315540      11.26006037
Si       3.35917511       1.63195117       6.22240502
Si       4.57004577       0.20020303       4.78240290
Si       0.59538622       0.63083313      14.85771359
Si       2.95565260       3.85767422       9.82005824
12
Lattice="5.433776030688037 -7.397517719508152e-16 2.3284458106156863e-22 -2.7168880153440185 4.705788081050811 4.65689162209371e-22 7.157423793000728e-22 2.066170275711249e-21 15.269968171963141" Properties=species:S:1:pos:R:3 unique_starting_index=180 config_type=initial n_minim_iter=8 pbc="T T T"
Si       0.96340947       3.50333370      15.03679421
Si      -0.16461677       2.11978416       9.94680482
Si      -0.79879270       3.78845831       4.85681543
Si       1.69929052       2.44210295       9.15996375
Si       3.98216595       2.01310785       4.06997436
Si       2.46920758       0.25057729      14.24995314
Si       2.45062231       0.96698331       1.19903937
Si       2.32900897       2.09999525      11.37901815
Si       3.37103276       1.63880953       6.28902876
Si       4.59057781       0.18553321       4.83666292
Si       0.58227558       0.63746448      15.01664171
Si       2.97781065       3.88279040       9.92665232
12
Lattice="5.395311099067051 -8.57064845646204e-16 -1.0849274216897527e-20 -2.6976555495335255 4.672476473112205 -2.1698548433707577e-20 -3.3334486584000994e-20 -9.622837401392629e-20 15.22147257469637" Properties=species:S:1:pos:R:3 unique_starting_index=180 config_type=initial n_minim_iter=9 pbc="T T T"
Si       0.96488291       3.47120492      14.99207173
Si      -0.17394536       2.10126091       9.91824754
Si      -0.79093755       3.77248713       4.84442335
Si       1.69063134       2.41718896       9.12302957
Si       3.94568692       1.99975231       4.04920538
Si       2.45664839       0.25553522      14.19685377
Si       2.43390370       0.95970910       1.19599576
Si       2.31183615       2.08479949      11.34364414
Si       3.34722679       1.62796789       6.26981995
Si       4.56107516       0.17222397       4.82534851
Si       0.56626829       0.63635753      14.97299689
Si       2.96562319       3.86389498       9.89917270
12
Lattice="5.3354814364570435 -3.5809603672747874e-16 4.935097172074141e-19 -2.6677407182285227 4.620662465392087 9.870194344149155e-19 1.5179401905098375e-18 4.3819158880219715e-18 15.21185752864876" Properties=species:S:1:pos:R:3 unique_starting_index=180 config_type=initial n_minim_iter=10 pbc="T T T"
Si       0.97431072       3.41570108      14.98997905
Si      -0.19681217       2.06903409       9.91935987
Si      -0.77749855       3.75658976       4.84874070
Si       1.67970537       2.37269653       9.09762653
Si       3.88270350       1.97964669       4.02700735
Si       2.44081328       0.26831926      14.16824570
Si       2.40858969       0.94830690       1.19813364
Si       2.28470373       2.06060917      11.33937199
Si       3.30992873       1.61174641       6.26875281
Si       4.51799695       0.14144973       4.83166988
Si       0.53124130       0.63723747      14.97290823
Si       2.95398391       3.84197527       9.90228905
12
Lattice="4.8805881846538055 -7.445498419310848e-16 -1.5422051545747482e-17 -2.440294092326903 4.226713353320371 -3.0844103091494914e-17 -4.805885780205895e-17 -1.3873397244482444e-16 14.851480932235388" Properties=species:S:1:pos:R:3 unique_starting_index=180 config_type=initial n_minim_iter=11 pbc="T T T"
Si       1.01328866       3.03100545      14.68437546
Si      -0.32201071       1.83367691       9.73388181
Si      -0.69127796       3.58874436       4.78338817
Si       1.58254582       2.07106959       8.75077667
Si       3.44262005       1.82065368       3.80028302
Si       2.29571640       0.33499010      13.70127031
Si       2.21365404       0.86379246       1.19432062
Si       2.08153328       1.87773650      11.09530791
Si       3.02569495       1.48518441       6.14481426
Si       4.18045065      -0.04143147       4.77443969
Si       0.31418806       0.62705263      14.67542698
Si       2.82624357       3.64109220       9.72493334
12
Lattice="5.147784403048108 -1.368300709682304e-15 4.744347726781509e-16 -2.5738922015240537 4.458112066244972 9.488695453563021e-16 1.4375547792574074e-15 4.149863193895482e-15 14.821501326918415" Properties=species:S:1:pos:R:3 unique_starting_index=180 config_type=initial n_minim_iter=12 pbc="T T T"
Si       1.11216135       3.16850263      14.68100392
Si      -0.38596911       1.91070077       9.74050348
Si      -0.72619224       3.83702074       4.80000304
Si       1.69786249       2.16240678       8.66124741
Si       3.59766015       1.90651663       3.72074697
Si       2.42615395       0.38918867      13.60174785
Si       2.34802360       0.91973521       1.23254363
Si       2.19639446       1.96479638      11.11354451
Si       3.17725855       1.57358048       6.17304407
Si       4.43590590      -0.09594736       4.76976193
Si       0.27284640       0.66447855      14.65076282
Si       3.01292430       3.88958088       9.71026237
12
Lattice="4.857136695582463 -2.422031087270459e-15 2.3483570830928663e-15 -2.42856834779123 4.206403768028014 4.69671416618573e-15 7.103761537319991e-15 2.050679317915303e-14 14.146142183952064" Properties=species:S:1:pos:R:3 unique_starting_index=180 config_type=initial n_minim_iter=13 pbc="T T T"
Si       1.05110438       2.99034935      14.01346342
Si      -0.36440204       1.80094600       9.29808269
Si      -0.68670235       3.62151220       4.58270196
Si       1.60276105       2.03995224       8.26507784
Si       3.39383828       1.79839586       3.54969712
Si       2.28910571       0.36805567      12.98045857
Si       2.21499350       0.86789839       1.17645836
Si       2.07269365       1.85421393      10.60721982
Si       2.99801789       1.48429145       5.89183909
Si       4.18595395      -0.09144961       4.55243802
Si       0.25639369       0.62698612      13.98319948
Si       2.84335741       3.67086727       9.26781875
12
Lattice="4.850297718577307 9.336494261917903e-15 2.2775709462828676e-15 -2.4251488592886634 4.2004810402056485 4.7663210320440304e-15 6.929671912310955e-15 2.0761884211934585e-14 14.04322911630146" Properties=species:S:1:pos:R:3 unique_starting_index=180 config_type=initial n_minim_iter=14 pbc="T T T"
Si       1.05340997       2.98368697      13.91388007
Si      -0.36790514       1.79635776       9.23280370
Si      -0.68550484       3.62091736       4.55172732
Si       1.60338380       2.03430112       8.19767753
Si       3.38521340       1.79475938       3.51660116
Si       2.28684937       0.37142055      12.87875390
Si       2.21356442       0.86758045       1.17250208
Si       2.06971335       1.84968780      10.53465482
Si       2.99216881       1.48321280       5.85357845
Si       4.18288668      -0.09659654       4.51962409
Si       0.25005045       0.62629319      13.88177683
Si       2.84250944       3.67078440       9.20070046
12
Lattice="4.846085933631508 -5.05403562448157e-17 2.066303709084049e-15 -2.423042966815756 4.196833527447314 4.9791475156842454e-15 6.41732660478243e-15 2.1562082767313696e-14 13.769295963374176" Properties=species:S:1:pos:R:3 unique_starting_index=180 config_type=initial n_minim_iter=15 pbc="T T T"
Si       1.06530178       2.97249712      13.65021882
Si      -0.38143585       1.78800656       9.06045350
Si      -0.68386594       3.63316338       4.47068818
Si       1.61191996       2.02282466       8.01316323
Si       3.36890053       1.78945757       3.42339791
Si       2.28830841       0.38455131      12.60292855
Si       2.21761528       0.86986488       1.16554029
Si       2.06756041       1.84138993      10.34507094
Si       2.98395321       1.48557873       5.75530561
Si       4.18892849      -0.11468700       4.43241104
Si       0.22925687       0.62645855      13.61194168
Si       2.85094354       3.68506199       9.02217636
12
Lattice="4.726882245946687 -1.5822563967628117e-15 1.6494287468108804e-15 -2.363441122973345 4.093600105687476 5.593128165920893e-15 5.253192563421468e-15 2.3363965816862227e-14 13.201158678106877" Properties=species:S:1:pos:R:3 unique_starting_index=180 config_type=initial n_minim_iter=16 pbc="T T T"
Si       1.07623900       2.87282344      13.10839337
Si      -0.41362255       1.72513807       8.70800715
Si      -0.66261646       3.58923871       4.30762092
Si       1.60235523       1.94251547       7.60898732
Si       3.24453125       1.73466204       3.20860109
Si       2.24343689       0.41642260      12.00937354
Si       2.18176913       0.85621771       1.16761860
Si       2.01406284       1.77602376       9.96839105
Si       2.89449139       1.46135865       5.56800483
Si       4.11408793      -0.16741369       4.25149953
Si       0.16141264       0.61440229      13.05227198
Si       2.81482279       3.64661151       8.65188575
12
Lattice="4.9528108159876645 -6.103313475688446e-15 1.755192829408651e-15 -2.4764054079938296 4.289259986783656 5.168456122688978e-15 5.621571037114345e-15 2.2201001261252366e-14 13.755877615096162" Properties=species:S:1:pos:R:3 unique_starting_index=180 config_type=initial n_minim_iter=17 pbc="T T T"
Si       1.13102422       3.00288743      13.66165900
Si      -0.44134072       1.80832056       9.07636646
Si      -0.68968350       3.76731198       4.49107392
Si       1.68241121       2.03133411       7.91546356
Si       3.39438674       1.81658209       3.33017102
Si       2.35241827       0.44134380      12.50075610
Si       2.28965842       0.89531804       1.22746845
Si       2.10694436       1.85869861      10.39805353
Si       3.03261344       1.53524334       5.81276099
Si       4.31154634      -0.18496105       4.43017587
Si       0.16045127       0.64783186      13.60076094
Si       2.95721862       3.82638919       9.01546841
12
Lattice="4.773170503851088 -1.049106134405614e-15 1.5787802919656932e-15 -2.3865852519255473 4.133686912929615 5.642827824134223e-15 5.004280244193873e-15 2.3291358901168858e-14 13.407787033898398" Properties=species:S:1:pos:R:3 unique_starting_index=180 config_type=initial n_minim_iter=18 pbc="T T T"
Si       1.09058451       2.89384835      13.31662698
Si      -0.42573133       1.74228885       8.84736463
Si      -0.66485319       3.63123664       4.37810229
Si       1.62195075       1.95698701       7.71442876
Si       3.27041034       1.75054286       3.24516641
Si       2.26739467       0.42615705      12.18369110
Si       2.20650929       0.86251971       1.19658048
Si       2.03029458       1.79153396      10.13510517
Si       2.92295188       1.47963325       5.66584282
Si       4.15524533      -0.17917069       4.31795865
Si       0.15379621       0.62472425      13.25648334
Si       2.85071421       3.68813337       8.78722100
12
Lattice="4.76161529269848 -2.7531734647910322e-15 1.4944321096415883e-15 -2.380807646349242 4.123679806525366 5.774044495955558e-15 4.730147549324307e-15 2.3545987706206522e-14 13.41078724443705" Properties=species:S:1:pos:R:3 unique_starting_index=180 config_type=initial n_minim_iter=19 pbc="T T T"
Si       1.08856308       2.88551903      13.32026146
Si      -0.42615641       1.73819701       8.84999904
Si      -0.66240667       3.62364358       4.37973663
Si       1.61885098       1.95125298       7.71369705
Si       3.26121680       1.74608725       3.24343464
Si       2.26235516       0.42633959      12.18395947
Si       2.20187475       0.85976001       1.19867275
Si       2.02444428       1.78692033      10.13919758
Si       2.91610391       1.47699947       5.66893517
Si       4.14524863      -0.18079501       4.31890361
Si       0.15161025       0.62418670      13.25942844
Si       2.84556405       3.68028813       8.78916602
12
Lattice="4.757550575118873 -1.3763334715156714e-15 1.4239233636497944e-15 -2.37877528755944 4.1201596578422155 5.8782749606776984e-15 4.502149755579751e-15 2.374026473445154e-14 13.42850261887588" Properties=species:S:1:pos:R:3 unique_starting_index=180 config_type=initial n_minim_iter=20 pbc="T T T"
Si       1.08829809       2.88149360      13.33861710
Si      -0.42747767       1.73691907       8.86244956
Si      -0.66082042       3.62190665       4.38628202
Si       1.61841895       1.94845708       7.72101904
Si       3.25697914       1.74433920       3.24485150
Si       2.26092777       0.42736339      12.19718658
Si       2.20083849       0.85819860       1.20238530
Si       2.02157783       1.78507832      10.15472038
Si       2.91390954       1.47688275       5.67855284
Si       4.14173790      -0.18301221       4.32458747
Si       0.14941311       0.62481553      13.27692255
Si       2.84517485       3.67835634       8.80075501
12
Lattice="4.704061766240515 -3.414513864395408e-15 1.444916295100561e-15 -2.3520308831202597 4.073836990535389 5.967531393167987e-15 4.4509800408767775e-15 2.3551641315457946e-14 13.58824320033104" Properties=species:S:1:pos:R:3 unique_starting_index=180 config_type=initial n_minim_iter=21 pbc="T T T"
Si       1.08282901       2.83224040      13.50590297
Si      -0.44065325       1.71995936       8.97648857
Si      -0.64217576       3.59547422       4.44707417
Si       1.61057698       1.91431327       7.78137299
Si       3.20458631       1.72187978       3.25195859
Si       2.24092935       0.43764395      12.31078739
Si       2.18535612       0.83884183       1.23983119
Si       1.98581116       1.76184217      10.29865999
Si       2.88492537       1.47315300       5.76924559
Si       4.09507831      -0.20662610       4.37576638
Si       0.12554827       0.63070820      13.43459518
Si       2.83546606       3.64975490       8.90518078
