14
Lattice="3.4602590137776676 -1.0657064536363363e-27 -1.635298683862857e-27 2.9273906727593577e-27 9.507081504555057 -2.89807428271643e-16 2.4278332712135665e-27 -4.753540752277529 8.233374098793862" Properties=species:S:1:pos:R:3 unique_starting_index=124 config_type=initial n_minim_iter=1 energy=-2276.752690573623 free_energy=-2276.752690573623 pbc="T T T"
Si       2.59532640       3.28649459       7.22745324
Si       2.59532640      -3.14886464       7.46583529
Si       2.59532640      -0.13762994       1.77345968
Si       0.86493261       4.61591081       6.45991442
Si       0.86493261       8.04003534       1.00592087
Si       0.86493261       1.60467611       0.76753882
Si       2.59838753       1.10237117       3.71723882
Si       2.59838753       0.98313192       7.32943613
Si       2.59838753      -2.08550309       5.42007326
Si       0.86187148       2.66803767       2.81330085
Si       0.86187148       5.85591192       4.51613528
Si       0.86187148       5.73667268       0.90393798
Si       2.56030256       4.75354075       2.74445804
Si       0.89995645       0.00000000       5.48891607
14
Lattice="3.4312119437041257 -1.0918111977929316e-27 -1.6598055721338044e-27 2.8053877909902263e-27 9.423616195052242 -2.772626034744694e-16 2.363694858555273e-27 -4.711808097526122 8.16109102042969" Properties=species:S:1:pos:R:3 unique_starting_index=124 config_type=initial n_minim_iter=2 stress="-0.012061040615547235 -1.5908012069918374e-17 1.401042455346e-17 -1.5908012069918374e-17 -0.009437437985852403 7.0902145387659e-17 1.401042455346e-17 7.0902145387659e-17 -0.009437437985852296" pbc="T T T"
Si       2.57355009       3.25361043       7.16458191
Si       2.57355009      -3.11970706       7.39650936
Si       2.57355009      -0.13390338       1.76109078
Si       0.85766185       4.57790472       6.40000024
Si       0.85766185       7.96541853       0.99650912
Si       0.85766185       1.59210104       0.76458167
Si       2.57612879       1.09437424       3.69456310
Si       2.57612879       0.96503548       7.26156537
Si       2.57612879      -2.05940972       5.36605358
Si       0.85508316       2.65239838       2.79503744
Si       0.85508316       5.80618234       4.46652793
Si       0.85508316       5.67684358       0.89952566
Si       2.53795027       4.71180810       2.72036368
Si       0.89326167       0.00000000       5.44072735
14
Lattice="3.4530470255883228 -1.2718278276149716e-27 -1.8589899248276635e-27 2.2596485513406296e-27 9.206052231547718 4.1427467093176113e-17 2.0964366382502005e-27 -4.603026115773861 7.972675101086744" Properties=species:S:1:pos:R:3 unique_starting_index=124 config_type=initial n_minim_iter=3 stress="-0.0025155969111067765 -6.633259649968289e-17 2.0783732664861706e-17 -6.633259649968289e-17 -0.006045750235751468 1.3600830414841484e-16 2.0783732664861706e-17 1.3600830414841484e-16 -0.006045750235751916" pbc="T T T"
Si       2.59008472       3.11551883       7.00666820
Si       2.59008472      -3.02268595       7.16745946
Si       2.59008472      -0.09283287       1.77122255
Si       0.86296231       4.51019324       6.20145255
Si       0.86296231       7.71854495       0.96600691
Si       0.86296231       1.58034016       0.80521565
Si       2.58598564       1.09612350       3.76169480
Si       2.58598564       0.79724111       7.04109850
Si       2.58598564      -1.89336461       5.14255691
Si       0.86706138       2.70966151       2.83011819
Si       0.86706138       5.69914961       4.21098031
Si       0.86706138       5.40026723       0.93157661
Si       2.54149878       4.60302612       2.65755837
Si       0.91154825       0.00000000       5.31511674
14
Lattice="3.423544923099314 -1.3615091201174789e-27 -1.975319777885314e-27 1.978201612572941e-27 9.167036222589811 -4.812356210149189e-16 1.912766596341414e-27 -4.583518111294908 7.938886246174918" Properties=species:S:1:pos:R:3 unique_starting_index=124 config_type=initial n_minim_iter=4 stress="-0.010825061011830905 -3.618366214975103e-17 -2.5420986501849982e-17 -3.618366214975103e-17 -0.002998262268768087 3.4241506962929045e-16 -2.5420986501849982e-17 3.4241506962929045e-16 -0.002998262268767745" pbc="T T T"
Si       2.56806650       3.07210801       6.97730204
Si       2.56806650      -2.99505671       7.11075881
Si       2.56806650      -0.07705130       1.78971165
Si       0.85547842       4.50646681       6.14917460
Si       0.85547842       7.65562612       0.96158421
Si       0.85547842       1.58846140       0.82812744
Si       2.56200776       1.10814771       3.82104595
Si       2.56200776       0.72032140       6.98804734
Si       2.56200776      -1.82846911       5.06867921
Si       0.86153716       2.75504900       2.87020704
Si       0.86153716       5.69166582       4.11784030
Si       0.86153716       5.30383951       0.95083891
Si       2.51637767       4.58351811       2.64629542
Si       0.90716726       0.00000000       5.29259083
14
Lattice="3.4757581583398047 -1.4578741084813056e-27 -2.1277351310428154e-27 1.7150137239164995e-27 9.082067624538567 -6.164854069227713e-16 1.6908952584166575e-27 -4.541033812269286 7.865301281738592" Properties=species:S:1:pos:R:3 unique_starting_index=124 config_type=initial n_minim_iter=5 stress="-0.0007385381206498757 -3.4499678982370303e-17 1.545007996629732e-17 -3.4499678982370303e-17 -0.004213585462443305 4.655586204812171e-16 1.545007996629732e-17 4.655586204812171e-16 -0.004213585462442503" pbc="T T T"
Si       2.60731209       3.02620119       6.90985529
Si       2.60731209      -2.95617699       7.03114075
Si       2.60731209      -0.07002419       1.78960654
Si       0.86844607       4.47100962       6.07569475
Si       0.86844607       7.56723500       0.95544600
Si       0.86844607       1.58485682       0.83416054
Si       2.60178016       1.10957424       3.82200009
Si       2.60178016       0.67629752       6.91522072
Si       2.60178016      -1.78587176       4.99338176
Si       0.87397799       2.75516205       2.87191953
Si       0.87397799       5.65060806       4.04330120
Si       0.87397799       5.21733134       0.95008056
Si       2.55732906       4.54103381       2.62176710
Si       0.91842910       0.00000000       5.24353419
14
Lattice="3.4806964787057524 -1.5144041800770334e-27 -2.2186823191001843e-27 1.5784587422584368e-27 9.12094216009916 -1.1084645242793606e-15 1.566866759382064e-27 -4.560471080049584 7.89896761709439" Properties=species:S:1:pos:R:3 unique_starting_index=124 config_type=initial n_minim_iter=6 stress="0.005076585350619301 -1.751674316853706e-17 3.044339622751701e-17 -1.751674316853706e-17 0.004278108280094671 4.065000087772499e-16 3.044339622751701e-17 4.065000087772499e-16 0.004278108280095011" pbc="T T T"
Si       2.61103521       3.03617039       6.93419618
Si       2.61103521      -2.96280416       7.06127022
Si       2.61103521      -0.07336623       1.80246884
Si       0.86966127       4.48710485       6.09649878
Si       0.86966127       7.59664147       0.96477144
Si       0.86966127       1.59766692       0.83769740
Si       2.60830535       1.12245274       3.84330844
Si       2.60830535       0.67084197       6.94938598
Si       2.60830535      -1.79329470       5.00524082
Si       0.87239113       2.76717638       2.89372681
Si       0.87239113       5.68292382       4.05565918
Si       0.87239113       5.23131305       0.94958164
Si       2.56848309       4.56047108       2.63298921
Si       0.91221339       0.00000000       5.26597841
14
Lattice="3.4804868826497555 -1.6088194413602379e-27 -2.380248482873912e-27 1.3005473514727568e-27 9.078998425201084 -1.1014052439742652e-15 1.2980568451274835e-27 -4.5394992126005445 7.862643277143053" Properties=species:S:1:pos:R:3 unique_starting_index=124 config_type=initial n_minim_iter=7 stress="0.005144280624382049 5.9208238576115664e-18 -1.329002896570355e-17 5.9208238576115664e-18 0.007958264087077161 6.947793745301877e-16 -1.329002896570355e-17 6.947793745301877e-16 0.007958264087077276" pbc="T T T"
Si       2.61079835       3.00321645       6.87410917
Si       2.61079835      -2.91526218       7.02645043
Si       2.61079835      -0.08795427       1.82472696
Si       0.86968853       4.45154495       6.03791632
Si       0.86968853       7.54271566       0.98853411
Si       0.86968853       1.62423704       0.83619285
Si       2.62301970       1.16156093       3.85498602
Si       2.62301970       0.62020293       6.94109154
Si       2.62301970      -1.78176385       4.92920900
Si       0.85746718       2.75773536       2.93343428
Si       0.85746718       5.70106014       4.00765726
Si       0.85746718       5.15970214       0.92155174
Si       2.60866418       4.53949921       2.62088109
Si       0.87182271       0.00000000       5.24176219
14
Lattice="3.4783395496841596 -1.6644635234065482e-27 -2.477283307291713e-27 1.13253887932136e-27 9.048343428136436 -7.92130555403063e-16 1.131748874095891e-27 -4.5241717140682205 7.836095270932127" Properties=species:S:1:pos:R:3 unique_starting_index=124 config_type=initial n_minim_iter=8 stress="0.0020992070441385757 -1.0000307310224861e-18 6.1405000807422816e-18 -1.0000307310224861e-18 0.0028749455210568195 9.359462265077897e-16 6.1405000807422816e-18 9.359462265077897e-16 0.00287494552105705" pbc="T T T"
Si       2.60903362       2.99701535       6.84438412
Si       2.60903362      -2.90174647       7.00939464
Si       2.60903362      -0.09526887       1.81841179
Si       0.86930593       4.42890284       6.01768349
Si       0.86930593       7.52118706       0.99171116
Si       0.86930593       1.62242524       0.82670063
Si       2.62377132       1.16363578       3.82795376
Si       2.62377132       0.62724862       6.92985653
Si       2.62377132      -1.79088440       4.91438025
Si       0.85456823       2.73328732       2.92171503
Si       0.85456823       5.68780749       4.00814151
Si       0.85456823       5.15142034       0.90623874
Si       2.61454887       4.52417172       2.61203176
Si       0.86379068       0.00000000       5.22406352
14
Lattice="3.475050439926449 -1.7156466108107162e-27 -2.5664306598787544e-27 9.827763287043816e-28 9.032043569773517 -4.436484455886529e-16 9.825461275973398e-28 -4.516021784886762 7.821979179511752" Properties=species:S:1:pos:R:3 unique_starting_index=124 config_type=initial n_minim_iter=9 stress="-0.0003913251902039857 -2.945415723659538e-17 -2.1809953011858025e-17 -2.945415723659538e-17 -0.000469911772850712 1.1039224138584421e-15 -2.1809953011858025e-17 1.1039224138584421e-15 -0.00046991177285059623" pbc="T T T"
Si       2.60636576       2.99382697       6.82952996
Si       2.60636576      -2.89543813       6.99994441
Si       2.60636576      -0.09838883       1.81448400
Si       0.86868468       4.41763295       6.00749519
Si       0.86868468       7.50984875       0.99244923
Si       0.86868468       1.62058365       0.82203477
Si       2.61999078       1.16340843       3.81353600
Si       2.61999078       0.63169852       6.92275244
Si       2.61999078      -1.79510695       4.90766992
Si       0.85505966       2.72091484       2.91430926
Si       0.85505966       5.67943022       4.00844318
Si       0.85505966       5.14772030       0.89922674
Si       2.61190581       4.51602179       2.60732640
Si       0.86314463       0.00000000       5.21465279
14
Lattice="3.473705609635216 -1.7898190531082916e-27 -2.6956127183408005e-27 7.694977379796519e-28 9.01426746146835 -8.862598052720173e-16 7.694717486170321e-28 -4.507133730734177 7.80658461813905" Properties=species:S:1:pos:R:3 unique_starting_index=124 config_type=initial n_minim_iter=10 stress="-0.0021229956153086516 -6.88268771050325e-17 2.5586520734831296e-17 -6.88268771050325e-17 -0.0029433342678496033 1.329573874988958e-15 2.5586520734831296e-17 1.329573874988958e-15 -0.0029433342678496033" pbc="T T T"
Si       2.60477640       2.98718501       6.81102589
Si       2.60477640      -2.88498021       6.98804978
Si       2.60477640      -0.10220479       1.81409358
Si       0.86892921       4.40492894       5.99249105
Si       0.86892921       7.49431874       0.99555874
Si       0.86892921       1.62215352       0.81853484
Si       2.61163421       1.16715392       3.80250725
Si       2.61163421       0.63048890       6.91611594
Si       2.61163421      -1.79764282       4.89454605
Si       0.86207140       2.70949091       2.91203857
Si       0.86207140       5.67428765       4.00407737
Si       0.86207140       5.13762263       0.89046868
Si       2.60441356       4.50713373       2.60219487
Si       0.86929205       0.00000000       5.20438975
14
Lattice="3.4768226462779426 -1.8505414219242915e-27 -2.8004294738924236e-27 6.075860500046027e-28 9.022019474922802 -1.116068493043484e-15 6.075830255338511e-28 -4.5110097374614035 7.813298058721087" Properties=species:S:1:pos:R:3 unique_starting_index=124 config_type=initial n_minim_iter=11 stress="5.865802996564084e-05 6.560642446263096e-17 1.2476052428821702e-18 6.560642446263096e-17 2.221047528668285e-05 1.5962692196466336e-15 1.2476052428821702e-18 1.5962692196466336e-15 2.2210475286798815e-05" pbc="T T T"
Si       2.60700286       2.98578254       6.81480394
Si       2.60700286      -2.88367486       6.99165962
Si       2.60700286      -0.10210767       1.82013256
Si       0.86981979       4.40890207       5.99316550
Si       0.86981979       7.49679228       0.99849412
Si       0.86981979       1.62733488       0.82163844
Si       2.60977131       1.17231341       3.81322271
Si       2.60977131       0.62250530       6.92193990
Si       2.60977131      -1.79481870       4.89143351
Si       0.86705133       2.71619104       2.92186455
Si       0.86705133       5.68332315       4.00007535
Si       0.86705133       5.13351503       0.89135817
Si       2.60286219       4.51100974       2.60443269
Si       0.87396046       0.00000000       5.20886537
14
Lattice="3.476498030477238 -1.8972698537628755e-27 -2.881392151469912e-27 4.787918652229269e-28 9.02140028543758 -1.2641447820522883e-15 4.787915118726606e-28 -4.510700142718794 7.81276182489713" Properties=species:S:1:pos:R:3 unique_starting_index=124 config_type=initial n_minim_iter=12 stress="-0.00010254716276665284 -3.092487088318933e-17 4.149031348038611e-17 -3.092487088318933e-17 -7.462053592884583e-06 1.31245118763303e-15 4.149031348038611e-17 1.31245118763303e-15 -7.462053592536606e-06" pbc="T T T"
Si       2.60696559       2.98556320       6.81361342
Si       2.60696559      -2.88284376       6.99152869
Si       2.60696559      -0.10271943       1.82038155
Si       0.86953244       4.40798071       5.99238028
Si       0.86953244       7.49626334       0.99914841
Si       0.86953244       1.62785638       0.82123314
Si       2.60926487       1.17294294       3.81281672
Si       2.60926487       0.62223254       6.92215185
Si       2.60926487      -1.79517547       4.89055509
Si       0.86723316       2.71552467       2.92220674
Si       0.86723316       5.68364308       3.99994511
Si       0.86723316       5.13293268       0.89060998
Si       2.60340409       4.51070014       2.60425394
Si       0.87309394       0.00000000       5.20850789
14
Lattice="3.477696439862914 -1.934242614702485e-27 -2.9454614978712845e-27 3.769979520912102e-28 9.020714339734841 -1.3738984180515508e-15 3.7699791109731656e-28 -4.510357169867424 7.812167778492941" Properties=species:S:1:pos:R:3 unique_starting_index=124 config_type=initial n_minim_iter=13 stress="6.336087957228644e-05 3.4050287610088236e-17 2.092995227685911e-17 3.4050287610088236e-17 -1.352562514695851e-05 1.3844254881612963e-15 2.092995227685911e-17 1.3844254881612963e-15 -1.352562514695851e-05" pbc="T T T"
Si       2.60877549       2.98581050       6.81291853
Si       2.60877549      -2.88270860       6.99149627
Si       2.60877549      -0.10310191       1.81992077
Si       0.86892095       4.40725526       5.99224701
Si       0.86892095       7.49616767       0.99924926
Si       0.86892095       1.62764857       0.82067152
Si       2.60922037       1.17204629       3.81256506
Si       2.60922037       0.62255583       6.92090711
Si       2.60922037      -1.79460212       4.89086339
Si       0.86847607       2.71575505       2.92130439
Si       0.86847607       5.68240346       3.99960272
Si       0.86847607       5.13291300       0.89126067
Si       2.60608707       4.51035717       2.60405593
Si       0.87160937       0.00000000       5.20811185
