12
Lattice="5.499917002758443 1.441308174911624 -1.3938022804138108 2.195325106523567 4.721774188280943 0.7231042783401078 -0.4159010630413847 2.0736035897312672 11.491663341512705" Properties=species:S:1:pos:R:3 unique_starting_index=158 config_type=initial n_minim_iter=1 energy=-1952.2931770894781 free_energy=-1952.2931770894781 pbc="T T T"
Si       6.40523699       4.86392000       4.76406104
Si       1.68427516       4.71983291      11.16691526
Si       1.55719022       2.82866400       1.90415319
Si       5.62541956       5.97396444       1.89202535
Si       4.75595144       4.70061194       6.50333720
Si       2.98334690       3.49315684       7.41539812
Si       3.06905442       5.11187295       9.23446068
Si       3.38829875       2.38392636       3.66118060
Si       3.79583913       4.46938244       2.56123184
Si       1.28148355       1.62109500       4.74613474
Si       5.20219939       5.77616578       8.56345387
Si       5.37326543       2.74417074       1.44324763
12
Lattice="5.474445747997524 1.453117366780581 -1.4345222304613168 2.167891115097238 4.759383991342289 0.6749803497028697 -0.49072909187735625 2.01685083569483 11.44826600702453" Properties=species:S:1:pos:R:3 unique_starting_index=158 config_type=initial n_minim_iter=2 stress="-0.0003675980325454878 -0.0006641965519897689 -0.0021915150859519532 -0.0006641965519897689 0.0024657234830305673 -0.0012226266724085688 -0.0021915150859519532 -0.0012226266724085688 -0.000282540373779608" pbc="T T T"
Si       6.32802556       4.87372399       4.68578874
Si       1.59907272       4.68270089      11.08336503
Si       1.52505099       2.84659197       1.87762288
Si       5.57063466       6.00396932       1.80702862
Si       4.68535851       4.68551633       6.42256986
Si       2.90421399       3.46550815       7.35542531
Si       2.97368262       5.08981763       9.15438576
Si       3.33515001       2.37410560       3.61046280
Si       3.74616591       4.48644367       2.50038512
Si       1.24068572       1.60677301       4.70685516
Si       5.11458444       5.77393925       8.46924379
Si       5.33275128       2.75041518       1.38786522
12
Lattice="5.438807936057987 1.4599445033848009 -1.414339244104863 2.16136529006115 4.7577562611783915 0.6700789552579803 -0.4440088061069027 1.9880549713137623 11.41564969941252" Properties=species:S:1:pos:R:3 unique_starting_index=158 config_type=initial n_minim_iter=3 stress="-0.007457897338394407 -0.0014653988087128752 -3.028746177310281e-06 -0.0014653988087128752 0.00021221731939948262 -0.000538187034129191 -3.028746177310281e-06 -0.000538187034129191 -0.003497217510195324" pbc="T T T"
Si       6.30908924       4.88667814       4.70875136
Si       1.65452565       4.64283479      11.03099866
Si       1.50974823       2.86022429       1.89243214
Si       5.55542516       5.98830477       1.79781298
Si       4.70261406       4.65133586       6.41114560
Si       2.90037930       3.43240053       7.35101005
Si       2.97303642       5.05919007       9.13192986
Si       3.31711039       2.36383795       3.59989606
Si       3.73087419       4.47350765       2.50174870
Si       1.25593258       1.60783491       4.68345646
Si       5.13943909       5.78499529       8.45917465
Si       5.32176456       2.75061886       1.39823069
12
Lattice="5.490627404394258 1.4756609323067231 -1.4235809188907442 2.190298987252156 4.769388505215732 0.6662127453922804 -0.44621208032578136 1.9751489710721812 11.461886526401573" Properties=species:S:1:pos:R:3 unique_starting_index=158 config_type=initial n_minim_iter=4 stress="0.00416533170146431 0.0008626504579965877 -0.0009479544816525099 0.0008626504579965877 0.006461942531122269 -0.000483734280537394 -0.0009479544816525099 -0.000483734280537394 0.004649356281083082" pbc="T T T"
Si       6.37343874       4.91162235       4.72967159
Si       1.68702758       4.63250491      11.06425076
Si       1.52103476       2.87549745       1.90436950
Si       5.61982229       6.00128944       1.79002627
Si       4.75890586       4.65079513       6.43167967
Si       2.92455169       3.42758204       7.38167125
Si       2.99938562       5.05848731       9.16209464
Si       3.34473360       2.36859618       3.60658884
Si       3.76986352       4.48108867       2.50774151
Si       1.27174417       1.61253139       4.69685582
Si       5.20237483       5.80721421       8.48764028
Si       5.37985074       2.76439289       1.39885296
12
Lattice="5.51791451189372 1.4614686282463751 -1.427013645086206 2.2001670088169503 4.700740798190004 0.6410454742332099 -0.46557653759311735 1.9057604598468818 11.371280093496438" Properties=species:S:1:pos:R:3 unique_starting_index=158 config_type=initial n_minim_iter=5 stress="0.00014592390698456854 0.0020114441464337495 -0.0016564769153012762 0.0020114441464337495 -0.0061241289401190195 -0.0013651323685788534 -0.0016564769153012762 -0.0013651323685788534 -0.0044354254710617" pbc="T T T"
Si       6.39558494       4.84719368       4.68363367
Si       1.70249874       4.51022969      10.95617418
Si       1.50845824       2.85225515       1.89104530
Si       5.64981486       5.89918392       1.73127995
Si       4.77876946       4.54326598       6.36658079
Si       2.91335937       3.34250254       7.31868350
Si       2.98608348       4.95145329       9.06468456
Si       3.34094908       2.32019478       3.55397567
Si       3.77800364       4.39956896       2.47247633
Si       1.27791107       1.58544968       4.64993501
Si       5.22325325       5.72069547       8.39747316
Si       5.41280198       2.72065698       1.36838068
12
Lattice="5.4810912789299175 1.4288555856005791 -1.4036865059233745 2.163659768803841 4.7127975249861525 0.6658360101450287 -0.42444984325191104 1.9476959771795967 11.422133418253908" Properties=species:S:1:pos:R:3 unique_starting_index=158 config_type=initial n_minim_iter=6 stress="-0.0017157636277843218 -0.0016791463116653984 0.0024609375796667598 -0.0016791463116653984 -0.002367850519560956 0.0011813084154008717 0.0024609375796667598 0.0011813084154008717 -0.0008765805653457496" pbc="T T T"
Si       6.36194367       4.85177118       4.75290041
Si       1.72997522       4.53816896      11.02552343
Si       1.48257622       2.87822162       1.91565371
Si       5.60073854       5.89024481       1.76983399
Si       4.75835703       4.53941866       6.43445231
Si       2.90919037       3.35913203       7.37258162
Si       2.98260831       4.98473771       9.12244717
Si       3.32103700       2.31747532       3.58228061
Si       3.74406747       4.39794469       2.51421483
Si       1.29077568       1.60273050       4.68157465
Si       5.20316001       5.74412460       8.47375714
Si       5.38433001       2.70077375       1.40341075
12
Lattice="5.45988167943098 1.4372198809897043 -1.4194931843873324 2.151081755045844 4.744533220987805 0.6622920464971248 -0.44814585354706643 1.960363108485792 11.453279047822209" Properties=species:S:1:pos:R:3 unique_starting_index=158 config_type=initial n_minim_iter=7 stress="-0.0017734440594297622 -0.0012194658562203662 0.0012558122816351588 -0.0012194658562203662 0.0020936170882979084 0.001653808044646322 0.0012558122816351588 0.001653808044646322 0.0019560314085262957" pbc="T T T"
Si       6.32514572       4.89344191       4.75701721
Si       1.71502574       4.54661253      11.06607293
Si       1.45752849       2.92486781       1.91281944
Si       5.57435772       5.91988534       1.74516997
Si       4.71335966       4.55478387       6.45505313
Si       2.87500084       3.38691936       7.38445673
Si       2.95330237       5.02911858       9.12579793
Si       3.28782055       2.32787030       3.57062658
Si       3.71898032       4.41793095       2.51641417
Si       1.28589358       1.61877749       4.70229327
Si       5.15300294       5.78269449       8.48715268
Si       5.36074732       2.71308112       1.39067099
12
Lattice="5.469964126640065 1.4346286806601718 -1.42434707240377 2.147070435812489 4.740918091807914 0.638141018737439 -0.45527687270577183 1.9089395174158286 11.418846914524046" Properties=species:S:1:pos:R:3 unique_starting_index=158 config_type=initial n_minim_iter=8 stress="-0.00022157003306037218 -0.0006443768495642896 0.0013115580611762969 -0.0006443768495642896 0.002055760879252341 -0.0004950938226953431 0.0013115580611762969 -0.0004950938226953431 0.001255548005384746" pbc="T T T"
Si       6.32932749       4.87455315       4.72882191
Si       1.72966830       4.46796108      11.03646611
Si       1.43776404       2.95141284       1.88684978
Si       5.58172291       5.89307604       1.69275513
Si       4.70676972       4.50404497       6.43463758
Si       2.86829867       3.35605780       7.35255868
Si       2.95246766       5.00018226       9.06637435
Si       3.27752175       2.29985427       3.53221245
Si       3.71727009       4.39066539       2.49486736
Si       1.29802708       1.60205847       4.69985526
Si       5.14615584       5.73937978       8.44396297
Si       5.37368964       2.69266165       1.36902155
12
Lattice="5.482116785491769 1.4279428494280044 -1.439316757115468 2.1470861791838716 4.732380136126256 0.6406488014230717 -0.4984771242663929 1.9327349958448352 11.409981570955871" Properties=species:S:1:pos:R:3 unique_starting_index=158 config_type=initial n_minim_iter=9 stress="0.0001736515515681192 0.00026713812644298536 -0.0009515680638810367 0.00026713812644298536 0.0006310255495398016 0.0006316512851800356 -0.0009515680638810367 0.0006316512851800356 0.0004498950110094393" pbc="T T T"
Si       6.31654461       4.87568079       4.71059923
Si       1.69276576       4.47674421      11.03277988
Si       1.42899578       2.96266903       1.87599747
Si       5.58353003       5.88138301       1.67979759
Si       4.68601814       4.51090915       6.42270845
Si       2.84383690       3.37079847       7.34003492
Si       2.92413621       5.02262673       9.05365159
Si       3.26518960       2.29830256       3.51240461
Si       3.71394931       4.38351254       2.49005691
Si       1.28594907       1.60802505       4.70263974
Si       5.11948455       5.74392094       8.43070692
Si       5.37792093       2.68769424       1.35331956
12
Lattice="5.5101878939052575 1.4179686120764594 -1.4454565512101383 2.1521461567113 4.7010657311046895 0.6209948999224303 -0.5200638825008592 1.8893489263976755 11.353772586804267" Properties=species:S:1:pos:R:3 unique_starting_index=158 config_type=initial n_minim_iter=10 stress="0.002349429818406575 0.002121205235434231 -0.0016029444723040778 0.002121205235434231 -0.00222535302653583 -0.0013705643859576128 -0.0016029444723040778 -0.0013705643859576128 -0.0026202484128756425" pbc="T T T"
Si       6.31899241       4.82127691       4.66470067
Si       1.67799077       4.39612951      10.97763623
Si       1.42318989       2.98040687       1.81632538
Si       5.60990144       5.82397104       1.64140448
Si       4.69576203       4.47228970       6.37737865
Si       2.84129432       3.33853109       7.29675418
Si       2.91906984       5.00399926       8.99818004
Si       3.26167375       2.24893526       3.45518179
Si       3.73206443       4.33704496       2.46587623
Si       1.29269704       1.57333078       4.70832830
Si       5.13081097       5.66896364       8.38236051
Si       5.41371233       2.65505099       1.33315813
12
Lattice="5.4833691556638735 1.3749129730146221 -1.460257990157161 2.113506443812555 4.671188445168491 0.6334071683058601 -0.5530478602142904 1.913940386809501 11.427136128993137" Properties=species:S:1:pos:R:3 unique_starting_index=158 config_type=initial n_minim_iter=11 stress="-0.00013744476404840516 0.00036098299936022867 -0.00179512661107791 0.00036098299936022867 -0.0019089139769066495 0.001741930186449103 -0.00179512661107791 0.001741930186449103 -0.0004473574504084573" pbc="T T T"
Si       6.23879111       4.77856156       4.70729232
Si       1.62694030       4.37677483      11.03575973
Si       1.38599618       3.00736688       1.80582277
Si       5.55795869       5.75355399       1.65221503
Si       4.65085566       4.44184388       6.41829265
Si       2.78165514       3.32402601       7.35578121
Si       2.83680181       5.02041826       9.07252911
Si       3.20564166       2.20451742       3.44249119
Si       3.69053179       4.29043417       2.49193658
Si       1.27431839       1.56481877       4.75249836
Si       5.07926457       5.64828667       8.45372446
Si       5.39887714       2.61042349       1.34387561
12
Lattice="5.470324212048286 1.37572027710556 -1.4499702142138102 2.108701421407441 4.674451853174192 0.6302956810925102 -0.5207111639268256 1.8910442832192593 11.441145083110069" Properties=species:S:1:pos:R:3 unique_starting_index=158 config_type=initial n_minim_iter=12 stress="-0.0004291867079376265 -0.0006271188554052525 -0.00016148618367225266 -0.0006271188554052525 0.0003823392237850379 0.00045771562518109253 -0.00016148618367225266 0.00045771562518109253 2.81672067489627e-05" pbc="T T T"
Si       6.23792237       4.76054825       4.72105154
Si       1.64676500       4.36076609      11.04403682
Si       1.39550628       3.00478270       1.79319062
Si       5.54863543       5.75590494       1.66609138
Si       4.66119505       4.43537191       6.43402020
Si       2.79762809       3.31263839       7.37226338
Si       2.85014300       5.01232046       9.09362430
Si       3.20510469       2.19086134       3.44837381
Si       3.69205780       4.28856146       2.49743860
Si       1.28111129       1.54952406       4.76114259
Si       5.09430200       5.63010787       8.47229910
Si       5.39959706       2.60693036       1.35981223
12
Lattice="5.444978239140412 1.3817740191595254 -1.4284741753963761 2.1064197039325756 4.663376663819913 0.6181005169242987 -0.43470936523384646 1.8076335808762751 11.500452281342374" Properties=species:S:1:pos:R:3 unique_starting_index=158 config_type=initial n_minim_iter=13 stress="-0.0006834831344822649 -0.001382531309141405 0.003943281119224078 -0.001382531309141405 0.0038386235818517068 -0.0028617455894597824 0.003943281119224078 -0.0028617455894597824 0.0011541946564897774" pbc="T T T"
Si       6.25417301       4.70406006       4.77463258
Si       1.73544702       4.26103686      11.08643483
Si       1.41750368       3.02100190       1.74861484
Si       5.54445348       5.73208781       1.68222694
Si       4.69850043       4.37610160       6.50805891
Si       2.83630562       3.26793913       7.43708322
Si       2.88473204       4.98118353       9.15442194
Si       3.18456288       2.13196078       3.44111506
Si       3.70501577       4.25038529       2.51967312
Si       1.31009649       1.50267832       4.79514966
Si       5.14486368       5.56814629       8.53521908
Si       5.43310327       2.58890701       1.40116512
12
Lattice="5.468572994430754 1.3619210918411189 -1.4538316359917305 2.113780107619295 4.6149903524584355 0.6403568965024543 -0.49101137392458927 1.8549854140555861 11.572895694808555" Properties=species:S:1:pos:R:3 unique_starting_index=158 config_type=initial n_minim_iter=14 stress="0.0011379353226719684 -0.0014109458773733591 -0.00042311917028604537 -0.0014109458773733591 0.0018050021654196812 0.0004935322633329555 -0.00042311917028604537 0.0004935322633329555 0.0008248040579469322" pbc="T T T"
Si       6.25904276       4.66779119       4.80701322
Si       1.70423242       4.26700608      11.14683430
Si       1.44195182       3.02071682       1.72675176
Si       5.55335101       5.68650659       1.70660025
Si       4.68596374       4.35669277       6.58031510
Si       2.80078776       3.29516838       7.50224323
Si       2.82755342       5.02226375       9.22823589
Si       3.13953183       2.10013583       3.41953674
Si       3.71066288       4.20257512       2.54726238
Si       1.28476531       1.50224558       4.81818045
Si       5.11573953       5.56897016       8.59293006
Si       5.48164605       2.57346585       1.40679621
12
Lattice="5.470470425363618 1.3818241118792405 -1.4648447892265697 2.140311215988944 4.574902305072701 0.6388934735708143 -0.48541690879942584 1.8213664195953108 11.62196390363906" Properties=species:S:1:pos:R:3 unique_starting_index=158 config_type=initial n_minim_iter=15 stress="-0.000848225569952986 0.001326428110809075 -0.0012599245277657234 0.001326428110809075 -0.002200576609293478 0.0005181909749233428 -0.0012599245277657234 0.0005181909749233428 -0.0007228059639868549" pbc="T T T"
Si       6.27955625       4.65170403       4.84291189
Si       1.75390039       4.18439257      11.18331713
Si       1.46643094       3.05133091       1.69621758
Si       5.59113656       5.64286487       1.69291347
Si       4.71346016       4.29823238       6.64276177
Si       2.78993155       3.29011269       7.55383693
Si       2.82638913       5.02917018       9.25281717
Si       3.09810287       2.05690963       3.38092784
Si       3.73047951       4.14630000       2.56223307
Si       1.29643044       1.48411206       4.84641815
Si       5.13105043       5.54758542       8.63661997
Si       5.52634761       2.57634349       1.40602124
12
Lattice="5.494502521837953 1.3763301340012395 -1.4625670090245433 2.172522695269213 4.4803762565651475 0.6478296633481896 -0.45126003945685955 1.7707810938251614 11.70100146005391" Properties=species:S:1:pos:R:3 unique_starting_index=158 config_type=initial n_minim_iter=16 stress="4.410075809894181e-05 0.0016792634410034651 -0.00019699845081585864 0.0016792634410034651 -0.005269452274199476 -0.0008969635737298425 -0.00019699845081585864 -0.0008969635737298425 -0.0027639086666075363" pbc="T T T"
Si       6.32947252       4.55027132       4.92114959
Si       1.81996267       4.05443236      11.22113736
Si       1.54922661       3.08236630       1.62067934
Si       5.67387159       5.51647105       1.72964926
Si       4.81774115       4.15938013       6.76644977
Si       2.78854373       3.28555820       7.66122969
Si       2.82819947       5.05502391       9.31641962
Si       3.03968563       1.94032491       3.32291557
Si       3.77970604       4.00945340       2.59160533
Si       1.31864454       1.42003619       4.90797160
Si       5.18088514       5.45123934       8.75094768
Si       5.61911843       2.55427138       1.42427152
12
Lattice="5.5000689389551916 1.3889817314636044 -1.4508922841823497 2.1878483046130137 4.490669274282146 0.6612640400742167 -0.43362965325923786 1.8004647341973654 11.687848667492645" Properties=species:S:1:pos:R:3 unique_starting_index=158 config_type=initial n_minim_iter=17 stress="-0.0006201128012434725 0.0011538186283576227 0.0003522474391459499 0.0011538186283576227 -0.0030045047316220323 0.00017554315177885292 0.0003522474391459499 0.00017554315177885292 -0.0011723813995830699" pbc="T T T"
Si       6.35359951       4.58047240       4.92893488
Si       1.82234853       4.10910639      11.20305734
Si       1.59280771       3.08277166       1.64575269
Si       5.71110922       5.53592520       1.76291621
Si       4.86860155       4.16583983       6.77329228
Si       2.79991101       3.33738607       7.66082741
Si       2.85532250       5.10383059       9.30469041
Si       3.05976648       1.95816374       3.35033301
Si       3.79530277       4.02018747       2.58635207
Si       1.32269030       1.42751611       4.90266492
Si       5.19163024       5.48262230       8.76897008
Si       5.60067495       2.59175642       1.41965649
12
Lattice="5.503086949543185 1.3907817417057888 -1.4465924938607149 2.1850601955961952 4.5114477680624026 0.6586667503562624 -0.43526203445906814 1.8095258799809113 11.653548885522586" Properties=species:S:1:pos:R:3 unique_starting_index=158 config_type=initial n_minim_iter=18 stress="-8.178459316874394e-05 -0.00013941578949545335 0.00044259599662526143 -0.00013941578949545335 9.607484165738198e-06 -9.253175531659131e-07 0.00044259599662526143 -9.253175531659131e-07 -0.0001485050405632297" pbc="T T T"
Si       6.35824047       4.60048209       4.90581837
Si       1.80963904       4.14206118      11.17415027
Si       1.59635662       3.07545953       1.66557308
Si       5.71092319       5.56168966       1.75912018
Si       4.87179770       4.17756675       6.74407574
Si       2.80518658       3.34976279       7.62672358
Si       2.86158407       5.10792127       9.27294202
Si       3.08074795       1.98185429       3.36990975
Si       3.79116498       4.04397078       2.56986931
Si       1.31955497       1.43436197       4.88000707
Si       5.18478799       5.50044499       8.73826215
Si       5.57720698       2.60497922       1.40876710
12
Lattice="5.511201334561385 1.3998078835315937 -1.4441461805205043 2.1965373083076334 4.51172038993284 0.6596095262455082 -0.42942377229582435 1.8094700191422923 11.64535215376543" Properties=species:S:1:pos:R:3 unique_starting_index=158 config_type=initial n_minim_iter=19 stress="-0.00034077665375695953 0.00021032352467751563 -0.0001592444068643619 0.00021032352467751563 0.0005160046982888537 0.00025556356016077903 -0.0001592444068643619 0.00025556356016077903 0.0004385330195928313" pbc="T T T"
Si       6.38087468       4.60771135       4.90133148
Si       1.81560804       4.15117290      11.16245772
Si       1.63416344       3.07677292       1.67322558
Si       5.73647694       5.56703760       1.76306439
Si       4.90665755       4.15360402       6.75494212
Si       2.81235918       3.37033103       7.61941061
Si       2.86769303       5.12622741       9.26330487
Si       3.08802163       1.98604125       3.38577461
Si       3.79997000       4.04038475       2.55791035
Si       1.31920208       1.42627176       4.86817166
Si       5.18834626       5.50774221       8.73884244
Si       5.57024807       2.62590015       1.39885808
12
Lattice="5.5215397102249435 1.3935619628166442 -1.432294190244393 2.1907373849661216 4.524669786899889 0.6488407688548494 -0.42162205972563743 1.7962759833037676 11.577153329175824" Properties=species:S:1:pos:R:3 unique_starting_index=158 config_type=initial n_minim_iter=20 stress="0.0008929585900183461 -0.0014656652049429514 0.00015800493493075882 -0.0014656652049429514 0.003973966204363374 -0.000327221829763474 0.00015800493493075882 -0.000327221829763474 0.0012059216704140153" pbc="T T T"
Si       6.39727492       4.60130366       4.84930738
Si       1.80418537       4.16021970      11.11112078
Si       1.66837472       3.06741708       1.68639044
Si       5.73916755       5.57751915       1.73997508
Si       4.93734392       4.11307539       6.71773948
Si       2.83671176       3.36458679       7.54216608
Si       2.86301837       5.11362076       9.22208500
Si       3.12512590       2.00694163       3.42803578
Si       3.79195725       4.05477137       2.51840254
Si       1.31459066       1.40083966       4.82020957
Si       5.18938819       5.50146712       8.68002614
Si       5.53143803       2.63344194       1.37840571
12
Lattice="5.515533408949737 1.3778891840124492 -1.4400099311341665 2.183202993088388 4.484224509789729 0.643844187217747 -0.42796706215645924 1.7656181303359944 11.60555290904236" Properties=species:S:1:pos:R:3 unique_starting_index=158 config_type=initial n_minim_iter=21 stress="-0.0005373606294608766 0.0003646396175601348 -0.0007720399445808731 0.0003646396175601348 -0.0006021397246407733 0.0009009904285238191 -0.0007720399445808731 0.0009009904285238191 0.0008587404714873257" pbc="T T T"
Si       6.37513321       4.54675365       4.85311683
Si       1.80335856       4.08076847      11.14528471
Si       1.67311940       3.08694942       1.65533520
Si       5.72397975       5.51392963       1.71329085
Si       4.93817397       4.04865880       6.74574238
Si       2.82717058       3.32144129       7.55036238
Si       2.82531022       5.08534106       9.26638025
Si       3.10063486       1.97126334       3.41843719
Si       3.77877338       4.01234279       2.52102443
Si       1.31026944       1.36102471       4.83633945
Si       5.18532945       5.45279719       8.70027601
Si       5.53794675       2.59879572       1.37991357
