14
Lattice="6.265838766931106 1.2090515076154884 8.902812326147873e-15 -1.563427093293471 6.186940821213659 7.824238920203637e-15 -2.3512058368188233 -3.697996164414582 6.010651081663711" Properties=species:S:1:pos:R:3 unique_starting_index=174 config_type=initial n_minim_iter=1 energy=-2277.557601059273 free_energy=-2277.557601059273 pbc="T T T"
Si       0.90135494       0.91422119       3.80401653
Si       2.79667536       4.90207175       2.20663455
Si      -0.90135495      -0.91422119       3.80401653
Si       1.90573630       2.49392058       2.20663455
Si      -1.68306849       2.17924922       5.21196009
Si      -1.22718308       1.88939483       0.79869099
Si       0.11964139       4.00769160       5.21196009
Si      -0.33624402       4.29754599       0.79869099
Si       1.33555462       2.10057145       6.01065108
Si       1.01565121       1.59742471      -0.00000000
Si      -2.11726817       0.99289895       3.00532554
Si       0.55384107       5.19404186       3.00532554
Si      -0.78171355       3.09347041       3.00532554
Si      -0.00000000      -0.00000000       6.01065108
