16
Lattice="6.6099650061146376 2.9038237260241506 1.5447580734831807 3.282475661083543 7.414514811999083 -0.9177356278999232 -2.6412078309884417 -3.6585502073111713 7.681564819474929" Properties=species:S:1:pos:R:3 unique_starting_index=152 config_type=initial n_minim_iter=1 energy=-2603.9997878034073 free_energy=-2603.9997878034073 pbc="T T T"
Si       3.56245961       3.50008464       5.55132351
Si       3.22096196       0.35341000       7.71473465
Si       5.88605008       7.53646760       1.38777136
Si       5.62645380       1.99084674       3.12359917
Si      -0.76497239      -1.17204624       4.60575602
Si       3.85863777       4.31203412       3.29838926
Si       6.99018942       3.91132232       3.84979990
Si       2.37241083       1.41787119       5.75192330
Si       7.26392158       8.04391214       3.20110118
Si      -1.08306837      -1.88254070       6.85708878
Si       4.28048355       2.86445943       1.27638032
Si       5.94149620       5.29496767       2.16408068
Si       2.33228968       3.93060020       0.12901257
Si       1.32308704       3.77740067       3.50459187
Si       4.86601177       4.33982611       7.39459056
Si       0.24226391       1.00377160       4.66568181
16
Lattice="6.628487199343372 2.86874032243517 1.5530581774505292 3.254364638595464 7.402568246927834 -0.9089585086637976 -2.620688922712247 -3.64514535487038 7.6612617205854" Properties=species:S:1:pos:R:3 unique_starting_index=152 config_type=initial n_minim_iter=2 stress="0.003099964108121642 -0.0013975842433792145 0.0003766544904813765 -0.0013975842433792145 0.0016954604448818711 0.00031034839464290376 0.0003766544904813765 0.00031034839464290376 0.001490322295649223" pbc="T T T"
Si       3.56784234       3.48638788       5.54976391
Si       3.25077562       0.33551187       7.69968561
Si       5.87370942       7.50961794       1.39615890
Si       5.65394024       1.96196882       3.12749920
Si      -0.75690630      -1.16649369       4.59168210
Si       3.85746417       4.29030461       3.29748615
Si       7.01107795       3.87403000       3.85288407
Si       2.38501457       1.40945313       5.74404340
Si       7.25624630       8.01141437       3.21145153
Si      -1.06931326      -1.87644025       6.84288384
Si       4.28435322       2.84382604       1.28209359
Si       5.94149417       5.26606491       2.17112493
Si       2.32093131       3.92209363       0.13359808
Si       1.31524713       3.77057856       3.49966278
Si       4.87493216       4.31775978       7.38977314
Si       0.24917184       1.00500448       4.65988699
16
Lattice="6.60470443438545 2.822943785057301 1.548574287553094 3.209532142444729 7.358199868033315 -0.901404733176943 -2.586147987820934 -3.6225913548144066 7.597894939991843" Properties=species:S:1:pos:R:3 unique_starting_index=152 config_type=initial n_minim_iter=3 stress="-0.0024897811951435805 -0.0035102407530756313 0.00023356693778290474 -0.0035102407530756313 -0.00452638611032116 -8.577753183512105e-06 0.00023356693778290474 -8.577753183512105e-06 -0.006778337955550566" pbc="T T T"
Si       3.54931360       3.45783319       5.51509680
Si       3.26293726       0.30986834       7.62999238
Si       5.82598505       7.44892129       1.38931390
Si       5.65240434       1.92563720       3.10996435
Si      -0.74807930      -1.15922403       4.54558921
Si       3.83150503       4.24275064       3.27027327
Si       6.99209714       3.81767035       3.82610249
Si       2.38173822       1.39412677       5.69889919
Si       7.20180525       7.94389261       3.19925926
Si      -1.05442019      -1.86834708       6.79087641
Si       4.25744809       2.81261434       1.27826933
Si       5.90190291       5.21364020       2.16066056
Si       2.29596973       3.89824269       0.13421146
Si       1.30303428       3.73896536       3.46852182
Si       4.85134744       4.27218379       7.33633873
Si       0.25973592       0.99877489       4.62942748
16
Lattice="6.618287753724266 2.8216541532735553 1.5620689332758504 3.203535121806261 7.381212305328353 -0.9043460098270683 -2.5656668352350493 -3.6439850031951915 7.597406508126874" Properties=species:S:1:pos:R:3 unique_starting_index=152 config_type=initial n_minim_iter=4 stress="0.0004741198246458221 -0.0026771638549167244 -0.00023986327608662352 -0.0026771638549167244 0.0013476816579128473 -0.002276342052557937 -0.00023986327608662352 -0.002276342052557937 -0.00018701538041209113" pbc="T T T"
Si       3.55878664       3.47517012       5.53832489
Si       3.31070582       0.28632021       7.60634554
Si       5.82647101       7.46217309       1.39496031
Si       5.70494880       1.92399628       3.12301058
Si      -0.74883352      -1.16608749       4.52149914
Si       3.83562053       4.22365287       3.26476966
Si       7.03201112       3.80807819       3.82907866
Si       2.39873018       1.40204337       5.70051537
Si       7.19922157       7.96297000       3.22776814
Si      -1.05284883      -1.88598269       6.80174439
Si       4.24722071       2.82085209       1.29062610
Si       5.89751912       5.21898111       2.17329139
Si       2.29282459       3.91769174       0.13619206
Si       1.32093129       3.72168613       3.45959156
Si       4.86639819       4.27025564       7.34648415
Si       0.29547889       1.00014684       4.64963624
16
Lattice="6.669807318537711 2.8624430640330583 1.619732979076011 3.255398287723473 7.354961767289992 -0.8059263431820938 -2.564517938843951 -3.556405247221764 7.5299121927204515" Properties=species:S:1:pos:R:3 unique_starting_index=152 config_type=initial n_minim_iter=5 stress="0.0024644197652038775 0.0006150866164510129 0.0009906027374824333 0.0006150866164510129 -0.00022512336417993548 0.002877560642968475 0.0009906027374824333 0.002877560642968475 -0.0006511646285432037" pbc="T T T"
Si       3.61054415       3.55643337       5.59359061
Si       3.36992318       0.38020374       7.58769612
Si       5.89765267       7.47201889       1.50473214
Si       5.77481271       1.98007858       3.16280922
Si      -0.74680727      -1.11413361       4.47859674
Si       3.88339805       4.24687209       3.31817963
Si       7.11620004       3.87071120       3.88980773
Si       2.44231238       1.48499585       5.71692063
Si       7.28236832       8.00637765       3.35386256
Si      -1.05052929      -1.80698420       6.76827716
Si       4.27817300       2.85030446       1.33952091
Si       5.95165849       5.24947482       2.25710483
Si       2.32352792       3.92125191       0.19053083
Si       1.36994227       3.73200746       3.49279281
Si       4.94223883       4.36102609       7.40218640
Si       0.33562431       1.05321753       4.66584755
16
Lattice="6.6089571302784 2.838602701390512 1.5913455745170528 3.222378113511179 7.346286372584454 -0.8751914534552363 -2.5547139820883946 -3.607396341135788 7.6031565462859705" Properties=species:S:1:pos:R:3 unique_starting_index=152 config_type=initial n_minim_iter=6 stress="-0.00430626898737383 0.0008502333256615046 -0.0013481070596621436 0.0008502333256615046 -0.0016034530580575537 -0.0022912643462848128 -0.0013481070596621436 -0.0022912643462848128 0.003967047241695917" pbc="T T T"
Si       3.55631967       3.52394963       5.60287083
Si       3.33280846       0.30236444       7.60497739
Si       5.84008947       7.43942994       1.45369369
Si       5.73325523       1.93651654       3.14879487
Si      -0.75394270      -1.14833724       4.49100546
Si       3.82852497       4.19867097       3.29208179
Si       7.06271704       3.83229925       3.86383866
Si       2.40986661       1.45483340       5.73728920
Si       7.20282345       7.96479658       3.29270800
Si      -1.06878508      -1.85180354       6.82678008
Si       4.23668657       2.83632052       1.31100452
Si       5.88046755       5.20798482       2.21824357
Si       2.29708365       3.92003781       0.15367022
Si       1.35523427       3.66907195       3.46957069
Si       4.89186887       4.29492404       7.39323019
Si       0.32914753       1.01924561       4.69317626
16
Lattice="6.6312061866593135 2.8573759154365423 1.579198960601467 3.23495704146779 7.395698563933394 -0.8772998270855336 -2.554216873904839 -3.6473242877409073 7.533181654369407" Properties=species:S:1:pos:R:3 unique_starting_index=152 config_type=initial n_minim_iter=7 stress="-0.0038789586315255546 0.0015501858273602287 -0.0014087346080331631 0.0015501858273602287 0.0030937502458574543 -0.0030452121755446364 -0.0014087346080331631 -0.0030452121755446364 -0.00014470710059450933" pbc="T T T"
Si       3.56598070       3.55876888       5.56008415
Si       3.35597634       0.27583252       7.52453036
Si       5.86792352       7.48293827       1.44420534
Si       5.76535778       1.93440896       3.11863644
Si      -0.75498387      -1.16807436       4.42923782
Si       3.83391948       4.21044030       3.25794491
Si       7.10451979       3.86140477       3.83014878
Si       2.42667135       1.47287590       5.69119459
Si       7.22954168       8.01594050       3.25355389
Si      -1.07903264      -1.87198802       6.76707835
Si       4.25403700       2.85942276       1.29371536
Si       5.89113918       5.22840045       2.19773801
Si       2.30357056       3.95427494       0.14457677
Si       1.37121327       3.65618613       3.41907183
Si       4.92865820       4.31319773       7.31770305
Si       0.34127656       1.02026313       4.65448419
16
Lattice="6.702020309636026 2.8234659091873056 1.6051336059683734 3.246201935339585 7.33874840299007 -0.8460566713717197 -2.5316721901109833 -3.6104455121406094 7.45558780139966" Properties=species:S:1:pos:R:3 unique_starting_index=152 config_type=initial n_minim_iter=8 stress="-0.00011693600156019623 0.0006548421244506276 0.00016500781262062745 0.0006548421244506276 0.0003533595859385106 -0.0026924865122880007 0.00016500781262062745 -0.0026924865122880007 -0.0012397959032986222" pbc="T T T"
Si       3.59742904       3.58704255       5.57277922
Si       3.44023772       0.23543833       7.45589938
Si       5.93133111       7.40975015       1.49798539
Si       5.86605177       1.88254045       3.11923343
Si      -0.74548670      -1.16145885       4.33957525
Si       3.84988055       4.15309348       3.25990726
Si       7.22619940       3.84325044       3.84546431
Si       2.48409829       1.51197073       5.68394047
Si       7.29862894       7.95839553       3.27567532
Si      -1.08744785      -1.83428255       6.71535144
Si       4.30380321       2.84257062       1.29667011
Si       5.92161363       5.15526139       2.22500779
Si       2.31232610       3.94400483       0.15191333
Si       1.40662562       3.55923493       3.37285490
Si       5.03524223       4.28963796       7.28764915
Si       0.37938029       1.02572812       4.64155235
16
Lattice="6.692691146434465 2.8064723653153716 1.626834818118234 3.2118222108260346 7.319888868741595 -0.7777767696028229 -2.5131102157260834 -3.5337372551969786 7.396076866288908" Properties=species:S:1:pos:R:3 unique_starting_index=152 config_type=initial n_minim_iter=9 stress="-0.0007854823596065371 -0.0015668451584681504 -0.0006142732987374488 -0.0015668451584681504 0.00195572247359954 0.0013977659551242922 -0.0006142732987374488 0.0013977659551242922 -0.0010751712754610962" pbc="T T T"
Si       3.55568863       3.67864863       5.61992746
Si       3.45302090       0.24980359       7.40648294
Si       5.91165504       7.38679958       1.57980927
Si       5.88743501       1.85733580       3.12055943
Si      -0.74511545      -1.12740714       4.26705676
Si       3.80233162       4.14682796       3.29160780
Si       7.24757549       3.86782329       3.87258716
Si       2.48544952       1.59807008       5.70239656
Si       7.26475646       7.96568639       3.34424978
Si      -1.11533482      -1.75024116       6.68198490
Si       4.29988777       2.84415980       1.30636663
Si       5.87159723       5.12234563       2.27178367
Si       2.28928315       3.95353826       0.17750311
Si       1.39601455       3.51239054       3.35860828
Si       5.04223795       4.34144202       7.30161598
Si       0.39007959       1.07202057       4.65403720
16
Lattice="6.779471080958854 2.7994487623876667 1.6551035694550293 3.2653856654015456 7.265140046161237 -0.7701629272934545 -2.5074437738005035 -3.524484475378303 7.363267316231614" Properties=species:S:1:pos:R:3 unique_starting_index=152 config_type=initial n_minim_iter=10 stress="0.003693858758853872 0.0013223025847797117 0.002839497108493828 0.0013223025847797117 -0.005005211453014428 0.0008833244268410108 0.002839497108493828 0.0008833244268410108 6.450743723137137e-05" pbc="T T T"
Si       3.60916006       3.70302777       5.64678548
Si       3.54483236       0.21409042       7.37612324
Si       6.01868665       7.32113372       1.60317299
Si       5.99312589       1.83592378       3.13792792
Si      -0.73053501      -1.13453333       4.21112519
Si       3.84750517       4.10349802       3.30392209
Si       7.38728240       3.87528361       3.90011157
Si       2.55930367       1.61680577       5.71804370
Si       7.39110490       7.91906332       3.38202471
Si      -1.13015483      -1.72749691       6.65765790
Si       4.36866464       2.83319824       1.31378254
Si       5.93500719       5.06319880       2.29356874
Si       2.32543228       3.93211080       0.17077528
Si       1.42993739       3.41048054       3.30992606
Si       5.16622669       4.31299171       7.30468534
Si       0.44203844       1.05417673       4.65357371
16
Lattice="6.738328461483219 2.794786364948198 1.583132036755428 3.244710478245075 7.304880657334276 -0.8234435604282397 -2.5662290386824735 -3.5605921728470746 7.406179383668644" Properties=species:S:1:pos:R:3 unique_starting_index=152 config_type=initial n_minim_iter=11 stress="0.004998987352572376 0.0010946228535269468 -0.0017991142897433828 0.0010946228535269468 1.349263947425421e-05 0.0014356088686335586 -0.0017991142897433828 0.0014356088686335586 0.0004698066810040577" pbc="T T T"
Si       3.51344938       3.74157074       5.62232983
Si       3.46876052       0.17654368       7.34025437
Si       5.97769942       7.33051415       1.50640287
Si       5.93619328       1.82642011       3.08429853
Si      -0.74566724      -1.15454282       4.21798597
Si       3.78057987       4.12498297       3.27762476
Si       7.32757682       3.90346648       3.82869535
Si       2.50450075       1.60779020       5.71306552
Si       7.33898643       7.94357379       3.32937898
Si      -1.21200726      -1.72101818       6.66529207
Si       4.35091375       2.82857672       1.26590201
Si       5.87355683       5.05283866       2.22233084
Si       2.31477431       3.92826862       0.11993805
Si       1.33514534       3.38269869       3.24802120
Si       5.06143618       4.30972364       7.26410767
Si       0.40373815       1.02910498       4.64869591
16
Lattice="6.680571340060757 2.7818544326627768 1.6130372560750554 3.1880296134564716 7.328026953060789 -0.8269843504434685 -2.4923656673844645 -3.5867940087017356 7.417463207971192" Properties=species:S:1:pos:R:3 unique_starting_index=152 config_type=initial n_minim_iter=12 stress="9.556476976925408e-05 -0.0001236515945652042 0.001581353360382957 -0.0001236515945652042 0.0021702871561018566 0.0004925199893047919 0.001581353360382957 0.0004925199893047919 -1.1227484945691029e-05" pbc="T T T"
Si       3.49346982       3.74462581       5.64677533
Si       3.48192511       0.14476030       7.36582273
Si       5.91187493       7.33370555       1.51516916
Si       5.89712427       1.81126166       3.11936821
Si      -0.70508832      -1.16729882       4.22356660
Si       3.74859242       4.12442540       3.29762184
Si       7.27949543       3.89793386       3.86387730
Si       2.51372282       1.59218155       5.73700089
Si       7.27265162       7.94785482       3.36771473
Si      -1.16667306      -1.73141303       6.67064702
Si       4.31424193       2.82393066       1.28671005
Si       5.81475791       5.04554156       2.24279677
Si       2.28639200       3.92974794       0.11726486
Si       1.31487851       3.37357941       3.23862975
Si       5.04100380       4.29312381       7.29815373
Si       0.42735747       1.01318975       4.65970151
16
Lattice="6.659327884153266 2.7647366866605254 1.5887799081644043 3.1746639058487967 7.314081231788226 -0.8564687731144234 -2.505388928030074 -3.5962510597029365 7.447205749511076" Properties=species:S:1:pos:R:3 unique_starting_index=152 config_type=initial n_minim_iter=13 stress="-0.001254969961947339 -0.00017326940079243975 -0.00037083517976607455 -0.00017326940079243975 3.3118818042568243e-06 -0.0006647006326039723 -0.00037083517976607455 -0.0006647006326039723 -0.00025745075368547357" pbc="T T T"
Si       3.46086898       3.72018057       5.63540476
Si       3.45254907       0.12458930       7.36308426
Si       5.88404331       7.30735070       1.47961178
Si       5.87243982       1.79940850       3.10648570
Si      -0.70818590      -1.17202616       4.24153417
Si       3.72670840       4.10529046       3.28334767
Si       7.25169782       3.87628465       3.83736552
Si       2.49144442       1.56558056       5.73450489
Si       7.23768015       7.91654401       3.33788523
Si      -1.18083666      -1.74016154       6.68353905
Si       4.29760742       2.81141136       1.27635769
Si       5.79051247       5.02657757       2.21438340
Si       2.28183025       3.91336547       0.09989779
Si       1.28853588       3.36172044       3.22616027
Si       5.00033299       4.25892794       7.28626851
Si       0.41277742       0.99206180       4.66581723
16
Lattice="6.627606639280589 2.735913520567358 1.572682946711352 3.145937497125874 7.291188932940508 -0.8867036008124429 -2.505968947695869 -3.5994766879622 7.498206689250776" Properties=species:S:1:pos:R:3 unique_starting_index=152 config_type=initial n_minim_iter=14 stress="-0.0019930651149379095 0.0005656726847534337 -0.001955770549916431 0.0005656726847534337 -0.003152535255411599 -0.0010726818107145177 -0.001955770549916431 -0.0010726818107145177 0.000909784840187909" pbc="T T T"
Si       3.40671013       3.68862367       5.63821818
Si       3.41422579       0.10136661       7.37050037
Si       5.83421395       7.26123225       1.46121053
Si       5.83643437       1.78933266       3.11559380
Si      -0.68876365      -1.16741428       4.28414588
Si       3.69389687       4.07338208       3.28526995
Si       7.22579980       3.85024049       3.82201253
Si       2.47017885       1.52386313       5.74821954
Si       7.17733849       7.86818892       3.32133409
Si      -1.18116951      -1.74029676       6.69757166
Si       4.27344481       2.79896134       1.29112494
Si       5.75132707       5.00238146       2.18956821
Si       2.28539757       3.88311596       0.08581152
Si       1.24266754       3.35435859       3.21117556
Si       4.95600024       4.20783527       7.29753736
Si       0.39681025       0.95179781       4.69538746
16
Lattice="6.640636637099471 2.729621423439387 1.5792373685331502 3.14015753096593 7.295430761229213 -0.8763521874577109 -2.494749912495151 -3.597121974233719 7.470990863458881" Properties=species:S:1:pos:R:3 unique_starting_index=152 config_type=initial n_minim_iter=15 stress="-0.000781687157533313 -0.00026375320699935535 -0.0013379064664724124 -0.00026375320699935535 -0.0019053013284507792 -0.0009783251643593685 -0.0013379064664724124 -0.0009783251643593685 0.0003185528821916396" pbc="T T T"
Si       3.40393604       3.70576331       5.63704833
Si       3.43147855       0.08853348       7.34297016
Si       5.84079403       7.25755256       1.47907309
Si       5.85734277       1.77945877       3.11790134
Si      -0.67787305      -1.16690229       4.26040476
Si       3.69016447       4.06618964       3.28662570
Si       7.25634576       3.85497270       3.82357221
Si       2.48279523       1.53505324       5.74061694
Si       7.18230811       7.87108654       3.32392244
Si      -1.18012656      -1.73162815       6.67100481
Si       4.28343388       2.80116431       1.29723127
Si       5.75088500       4.99411907       2.19422909
Si       2.28976220       3.88955038       0.08988431
Si       1.24401869       3.34117268       3.19224687
Si       4.97941579       4.20967874       7.28460758
Si       0.40634140       0.95084168       4.69186602
16
Lattice="6.656422141048369 2.7469584674888585 1.605454484568345 3.144126338892089 7.3253739850163555 -0.8484401172569349 -2.4729316019033245 -3.597748745660577 7.4411279333991525" Properties=species:S:1:pos:R:3 unique_starting_index=152 config_type=initial n_minim_iter=16 stress="0.0008360370443217681 -0.00012481085834082967 0.000996735718769824 -0.00012481085834082967 0.0018944468431636382 0.0007863367833638847 0.000996735718769824 0.0007863367833638847 -0.00039635615937292653" pbc="T T T"
Si       3.42670625       3.72228971       5.64063251
Si       3.44836496       0.10616412       7.34393039
Si       5.85615321       7.29568373       1.52112013
Si       5.86792162       1.79836476       3.14276329
Si      -0.65392792      -1.16344491       4.25878561
Si       3.70591964       4.08927675       3.30607887
Si       7.28394237       3.88348458       3.84964982
Si       2.50281583       1.54766040       5.73600915
Si       7.20069413       7.91231498       3.34108602
Si      -1.15014009      -1.72893169       6.63972797
Si       4.29980913       2.81896134       1.32278233
Si       5.77216117       5.02439309       2.21748437
Si       2.30738592       3.91105869       0.11220189
Si       1.26079924       3.38084050       3.19949112
Si       5.01726359       4.24259005       7.29415271
Si       0.41643373       0.95764760       4.68946115
16
Lattice="6.655554850479616 2.7349009405028037 1.5966454064552345 3.1411118947137466 7.310204960065883 -0.8615098807667667 -2.4774606834158797 -3.5995998445771313 7.450222298059162" Properties=species:S:1:pos:R:3 unique_starting_index=152 config_type=initial n_minim_iter=17 stress="0.00038193462934830617 -0.0003107025214936148 0.0001740484992104101 -0.0003107025214936148 -0.0007052445256663687 -0.00017387009722646994 0.0001740484992104101 -0.00017387009722646994 -6.359928920930382e-06" pbc="T T T"
Si       3.40240028       3.73001659       5.65252776
Si       3.44394979       0.07801894       7.32655354
Si       5.85842203       7.26799630       1.50880008
Si       5.87259679       1.78206559       3.14373022
Si      -0.64499481      -1.17105879       4.24715632
Si       3.68294886       4.06605497       3.30745191
Si       7.30116660       3.88661787       3.84200840
Si       2.49907790       1.54750390       5.73948032
Si       7.19455713       7.89268107       3.33167416
Si      -1.17285159      -1.71856366       6.63404966
Si       4.30548554       2.80771369       1.31937117
Si       5.75806047       4.99099129       2.20680410
Si       2.31815406       3.90592044       0.10165099
Si       1.24716833       3.34646814       3.16842843
Si       5.01007819       4.22527729       7.28979370
Si       0.42230224       0.93997268       4.70034563
16
Lattice="6.650917231215644 2.7429961921148585 1.5916322929663786 3.1465284993161835 7.31948721206069 -0.870156792666007 -2.4848547697221743 -3.6099477774333915 7.465141592359869" Properties=species:S:1:pos:R:3 unique_starting_index=152 config_type=initial n_minim_iter=18 stress="-0.0006481206934292809 -0.0003717123799329772 -0.0006433989408275437 -0.0003717123799329772 -0.00013404042836047593 -0.00034064858286995324 -0.0006433989408275437 -0.00034064858286995324 -0.00012630576991284662" pbc="T T T"
Si       3.40203034       3.71208418       5.66041193
Si       3.42526870       0.07895602       7.33313241
Si       5.85849990       7.28408583       1.49106598
Si       5.86013395       1.79245196       3.15850905
Si      -0.63694002      -1.18066073       4.26186371
Si       3.67363560       4.06243135       3.31124488
Si       7.29680416       3.89741369       3.84051351
Si       2.48212652       1.53644975       5.72796713
Si       7.18435384       7.90710534       3.31114957
Si      -1.17623625      -1.72669172       6.63104224
Si       4.30684192       2.80179120       1.32534025
Si       5.76563224       4.99376439       2.19921477
Si       2.34354644       3.92148576       0.10663646
Si       1.25555593       3.38679029       3.17054797
Si       4.98325647       4.23211408       7.29389863
Si       0.42039682       0.93056168       4.70892916
16
Lattice="6.66665255479874 2.758388477807421 1.6022751246165068 3.162619236053523 7.334198230100227 -0.8656690794783672 -2.4824514849291335 -3.619658256563893 7.462676340709182" Properties=species:S:1:pos:R:3 unique_starting_index=152 config_type=initial n_minim_iter=19 stress="0.0004205460941311833 0.0003157886355355573 0.0006232762455586084 0.0003157886355355573 -0.00016585697334786472 0.0003906689913617975 0.0006232762455586084 0.0003906689913617975 0.0004922828672649887" pbc="T T T"
Si       3.40407584       3.73145780       5.67942089
Si       3.43025459       0.07303856       7.32861268
Si       5.88503243       7.29522537       1.50036285
Si       5.87190859       1.80274481       3.18564815
Si      -0.61236185      -1.18815483       4.25590788
Si       3.67263489       4.06219908       3.33160325
Si       7.33544983       3.93846064       3.86007539
Si       2.49598446       1.54425224       5.73371345
Si       7.20825809       7.93508532       3.31458407
Si      -1.17986794      -1.71494713       6.61167093
Si       4.33249547       2.80902666       1.34139940
Si       5.78339720       4.99462295       2.20484983
Si       2.38073588       3.93689907       0.11010313
Si       1.26208789       3.39960605       3.14997443
Si       5.00926674       4.24715545       7.30330686
Si       0.42624004       0.91821165       4.71815124
16
Lattice="6.682819062583409 2.7813819909308557 1.5842232169300499 3.188978516608176 7.361782280489028 -0.8748707476739339 -2.5056191824448333 -3.6450335018583453 7.437645871766001" Properties=species:S:1:pos:R:3 unique_starting_index=152 config_type=initial n_minim_iter=20 stress="-0.0001335369465852639 5.694592856568948e-05 -3.924982872999978e-05 5.694592856568948e-05 0.0010524735734796671 -0.00019680087840648016 -3.924982872999978e-05 -0.00019680087840648016 -0.0006634147321501901" pbc="T T T"
Si       3.39280044       3.75285156       5.67065277
Si       3.42848580       0.05738935       7.27269896
Si       5.90682349       7.30675375       1.46660515
Si       5.89812713       1.80617162       3.19018830
Si      -0.61669405      -1.20067723       4.20829879
Si       3.66732385       4.03808044       3.31787962
Si       7.36916721       3.98554668       3.85008072
Si       2.49457857       1.55811405       5.70777968
Si       7.22078014       7.98382639       3.27492481
Si      -1.21485346      -1.70661296       6.58693098
Si       4.35389708       2.82141622       1.33255463
Si       5.80538455       4.99957283       2.18014785
Si       2.42554219       3.97025878       0.09608492
Si       1.28664628       3.42607771       3.11188771
Si       5.02138789       4.25920082       7.25690061
Si       0.40916035       0.91573170       4.70350764
16
Lattice="6.68045268952326 2.7834835713720927 1.5756362637179389 3.194266909625818 7.3620771173818245 -0.8878935356833327 -2.5160499204283417 -3.6537782568201416 7.455085591457794" Properties=species:S:1:pos:R:3 unique_starting_index=152 config_type=initial n_minim_iter=21 stress="-6.997187241292963e-05 7.677948417730363e-05 -0.00011223507306150494 7.677948417730363e-05 0.0003256462633575964 -3.85360437331661e-06 -0.00011223507306150494 -3.85360437331661e-06 -0.00029176136833215745" pbc="T T T"
Si       3.38440960       3.74251523       5.66932841
Si       3.41776906       0.05416860       7.28191291
Si       5.90354760       7.29884329       1.44432610
Si       5.89004526       1.80475857       3.19596560
Si      -0.61751695      -1.20532687       4.21616886
Si       3.66734042       4.03082365       3.31785906
Si       7.35966829       3.99209208       3.85174878
Si       2.48685854       1.54653733       5.71182650
Si       7.21845431       7.98373157       3.25993489
Si      -1.22094512      -1.70601094       6.59910056
Si       4.35811314       2.81921604       1.32772142
Si       5.81230358       4.99800596       2.16835519
Si       2.43687014       3.96749789       0.08430938
Si       1.28423460       3.44066153       3.10898347
Si       5.01292113       4.24904719       7.25688216
Si       0.39449614       0.90866795       4.70340241
