22
Lattice="5.7976521635666165 1.5290575317221833 0.5367157287857097 4.339785449166655 7.392549235242957 1.3583392560940621 2.748630319615919 4.0080439583114815 12.175157696733994" Properties=species:S:1:pos:R:3 unique_starting_index=40 config_type=initial n_minim_iter=1 energy=-3581.951957541748 free_energy=-3581.951957541748 pbc="T T T"
Si       9.38379070       7.73688236      11.07121245
Si       2.74387629       4.50219050       4.66112200
Si       6.08202265       3.31024754       5.85303727
Si       6.45657374       8.96132233      10.80178906
Si       5.88783371       5.55183574      11.24445048
Si       8.50164995       8.37742511       5.59203373
Si       7.36140134       3.81187303       2.51348910
Si       7.95699556       8.77300873       7.80586037
Si       5.22414356       3.44346181       1.60818785
Si       8.22740916       9.46962003      12.47164705
Si       6.43825255       7.44114818       8.96449018
Si       5.28818443      10.87004949       9.77036262
Si       3.01245971       3.59526737       0.55054289
Si       2.88749027       3.59050712       6.87808875
Si       5.52104880       3.41533254      12.28631319
Si      10.01078841       8.44307280       8.85910990
Si       5.10126185       6.11821211       5.20762411
Si       6.17878846       8.26051617       5.14360147
Si       6.79049201       5.81143889       3.61891155
Si       4.90359242       4.83292897       7.34783307
Si       8.24415898       5.80795540      11.99482098
Si       4.58396887       3.26596769       3.89846698
22
Lattice="5.810856070284344 1.5284946499431495 0.5335326763418157 4.346360111699874 7.399188924787348 1.3593588873363254 2.745119853107091 4.017344335961438 12.177792404731793" Properties=species:S:1:pos:R:3 unique_starting_index=40 config_type=initial n_minim_iter=2 stress="0.00025828689320597347 0.00011192507290071022 0.00039426859554098396 0.00011192507290071022 0.0010383128772716496 -5.174878778587458e-05 0.00039426859554098396 -5.174878778587458e-05 0.0013055112878573312" pbc="T T T"
Si       9.39592533       7.74687080      11.07078109
Si       2.74514530       4.50804652       4.66242319
Si       6.09118087       3.31416644       5.85170724
Si       6.46112458       8.97352525      10.80396035
Si       5.89206751       5.56089504      11.24540472
Si       8.51508074       8.38552234       5.59139063
Si       7.37596975       3.81382636       2.51093130
Si       7.96741790       8.78293149       7.80682327
Si       5.23442249       3.44565836       1.60670638
Si       8.23480944       9.48238805      12.47315563
Si       6.44483703       7.45102072       8.96580240
Si       5.28979124      10.88428696       9.77412576
Si       3.01809333       3.59784273       0.55031595
Si       2.88805610       3.59656893       6.87931639
Si       5.52437413       3.42299062      12.28669487
Si      10.02543119       8.45230815       8.85830491
Si       5.10759730       6.12541229       5.20840284
Si       6.18690471       8.26909676       5.14459583
Si       6.80212656       5.81661192       3.61769042
Si       4.90853651       4.84003063       7.34842859
Si       8.25336267       5.81657578      11.99442445
Si       4.59121863       3.26947016       3.89747135
22
Lattice="5.817426398253325 1.523924947954303 0.5256642445541276 4.346733555144035 7.389103285674132 1.3543292122086132 2.731295476774386 4.017235782687371 12.148464678297458" Properties=species:S:1:pos:R:3 unique_starting_index=40 config_type=initial n_minim_iter=3 stress="0.00024579765261856934 -0.00028997025880393235 -0.00016261301582516684 -0.00028997025880393235 -0.0002833191302199278 0.00043456829338798744 -0.00016261301582516684 0.00043456829338798744 -0.0005716461853492295" pbc="T T T"
Si       9.39123142       7.73881178      11.03718115
Si       2.73994934       4.50342209       4.65028822
Si       6.08974958       3.30999369       5.83227557
Si       6.45181292       8.96499320      10.77513520
Si       5.88310074       5.55677120      11.21473639
Si       8.51534060       8.37413708       5.57162253
Si       7.38055520       3.80626552       2.49805651
Si       7.96412145       8.77265447       7.78440105
Si       5.23795646       3.43963551       1.59827232
Si       8.22529233       9.47289535      12.43843608
Si       6.43902664       7.44389417       8.94122446
Si       5.27915476      10.87395546       9.75008050
Si       3.02000697       3.59180599       0.54680997
Si       2.88097968       3.59414780       6.86171058
Si       5.51425209       3.42226395      12.25315955
Si      10.02329426       8.44171031       8.82961267
Si       5.10503150       6.11893836       5.19334199
Si       6.18471666       8.25848989       5.12928073
Si       6.80377940       5.80825094       3.60324096
Si       4.90375746       4.83639546       7.32785489
Si       8.24601346       5.81102864      11.95924697
Si       4.59110344       3.26526622       3.88370814
22
Lattice="5.822391788691286 1.5278749465480959 0.5167025386178122 4.354980342698725 7.389456123339919 1.3361161005109345 2.7240643878210387 3.9971224908773917 12.135510570410053" Properties=species:S:1:pos:R:3 unique_starting_index=40 config_type=initial n_minim_iter=4 stress="0.00040298904699267264 0.0003277096113556103 -0.0008919168730624281 0.0003277096113556103 -0.00013720401420013197 -0.0009771954182917419 -0.0008919168730624281 -0.0009771954182917419 -0.00023017565976985943" pbc="T T T"
Si       9.39513521       7.72745128      11.01048699
Si       2.73904839       4.49563550       4.63701936
Si       6.08865571       3.30425461       5.81885998
Si       6.45396805       8.94969613      10.74851835
Si       5.88097231       5.54062729      11.19497713
Si       8.52281764       8.37003586       5.54509748
Si       7.38485384       3.80607489       2.48394094
Si       7.97022310       8.76502131       7.76321136
Si       5.24368618       3.44040877       1.58711202
Si       8.22646693       9.45511516      12.40801773
Si       6.44310473       7.43384002       8.92043902
Si       5.28341694      10.85991558       9.72141213
Si       3.02566016       3.59069593       0.53668672
Si       2.87757091       3.58319033       6.85106345
Si       5.50740060       3.40477199      12.23760997
Si      10.02797708       8.43371950       8.80220228
Si       5.10963629       6.11578093       5.17652212
Si       6.19184099       8.25190129       5.10857106
Si       6.80924226       5.80716787       3.58370030
Si       4.90493582       4.83011866       7.31267068
Si       8.24277998       5.79430455      11.93692732
Si       4.59346866       3.26256481       3.86996870
22
Lattice="5.821580336135666 1.5295496141182203 0.5363914878582635 4.357590810546536 7.39360244105048 1.362439648504917 2.758427427760601 4.020212375336974 12.153522163726025" Properties=species:S:1:pos:R:3 unique_starting_index=40 config_type=initial n_minim_iter=5 stress="0.0003475230812909174 0.00021839940531094332 0.0007670424674167631 0.00021839940531094332 -0.00011842825778428303 0.00013915347767114636 0.0007670424674167631 0.00013915347767114636 -0.0004790791459971523" pbc="T T T"
Si       9.43030504       7.75403953      11.05320240
Si       2.74500629       4.50073368       4.65012098
Si       6.09530552       3.31549083       5.84480669
Si       6.48605169       8.97085303      10.78260490
Si       5.91305274       5.56119212      11.22131242
Si       8.53525322       8.38132473       5.58248372
Si       7.38363424       3.80584242       2.51639240
Si       7.99253044       8.78328156       7.82047783
Si       5.24840659       3.44310978       1.61175212
Si       8.25937435       9.47549190      12.44576900
Si       6.47491175       7.45697508       8.95911258
Si       5.31443165      10.88180282       9.75446263
Si       3.02894921       3.58451549       0.55096462
Si       2.89152556       3.59515488       6.86916979
Si       5.53765405       3.42916263      12.25995176
Si      10.04808779       8.45389218       8.85057505
Si       5.12658567       6.13578607       5.20626746
Si       6.20730695       8.25791114       5.14942941
Si       6.81378581       5.81646724       3.61091983
Si       4.92779089       4.85620102       7.33843217
Si       8.26869933       5.81255916      11.97232156
Si       4.60338124       3.27304102       3.88271526
22
Lattice="5.813651550893386 1.5262066082251509 0.5310757746944444 4.346577948537341 7.392399381812867 1.3612196091645985 2.739617465254045 4.022639037524271 12.163641586932817" Properties=species:S:1:pos:R:3 unique_starting_index=40 config_type=initial n_minim_iter=6 stress="-0.0005858345707008703 -0.00021615726647181062 -0.0002428480511961217 -0.00021615726647181062 0.0001398462233657444 0.00029931770849995646 -0.0002428480511961217 0.00029931770849995646 0.0002729366035812762" pbc="T T T"
Si       9.40346242       7.75241424      11.05630050
Si       2.73348080       4.50064992       4.65254850
Si       6.07933222       3.31366902       5.84494545
Si       6.46168669       8.97137618      10.78890470
Si       5.89091876       5.56143425      11.22719790
Si       8.51451197       8.37885301       5.58162496
Si       7.37011436       3.80189385       2.51242253
Si       7.97021161       8.78214201       7.82233559
Si       5.23876025       3.44057514       1.60830165
Si       8.23079274       9.47500790      12.45140345
Si       6.45326323       7.45643398       8.96335471
Si       5.29129561      10.88324010       9.76115009
Si       3.02280807       3.58262614       0.54930517
Si       2.87866599       3.59632854       6.87390161
Si       5.51579990       3.42944429      12.26646941
Si      10.02264993       8.45209355       8.85129276
Si       5.11153655       6.13576144       5.20782360
Si       6.18981699       8.25674045       5.15099283
Si       6.79824230       5.81404088       3.60844668
Si       4.91120371       4.85654676       7.34164056
Si       8.24269744       5.81148956      11.97660471
Si       4.59171588       3.27182775       3.88238761
22
Lattice="5.823107196145924 1.5205541702174594 0.5246576290915264 4.350136511315211 7.37763117311607 1.3472115565544711 2.7337566531324127 3.9967511390229538 12.161323701911552" Properties=species:S:1:pos:R:3 unique_starting_index=40 config_type=initial n_minim_iter=7 stress="0.0006001901616789542 -0.0002905653025265476 -0.0006668052528547857 -0.0002905653025265476 -0.0005446267391574428 -0.0009683922980471759 -0.0006668052528547857 -0.0009683922980471759 0.0007568440857947372" pbc="T T T"
Si       9.41020811       7.71763431      11.04478629
Si       2.73104378       4.48375362       4.64352330
Si       6.08065066       3.29613163       5.83781524
Si       6.46189000       8.93969365      10.77786137
Si       5.89096157       5.53254604      11.21747321
Si       8.52319451       8.35510457       5.57210533
Si       7.38046176       3.78705527       2.50521422
Si       7.97899836       8.75617442       7.80036489
Si       5.24461770       3.42908609       1.59489889
Si       8.23308868       9.43693209      12.43517816
Si       6.45148465       7.42464962       8.95271805
Si       5.28977705      10.85158390       9.74445788
Si       3.02537654       3.57250178       0.54245497
Si       2.88012524       3.58376958       6.86903729
Si       5.51442091       3.39961539      12.25946277
Si      10.03739841       8.42695315       8.83864229
Si       5.11430419       6.11910509       5.19769908
Si       6.19341107       8.23677644       5.14111747
Si       6.80213326       5.79573748       3.59398109
Si       4.91020072       4.83665149       7.33229091
Si       8.24702067       5.78170426      11.96632246
Si       4.59243135       3.25895655       3.87767656
22
Lattice="5.821458308024115 1.5379624789313662 0.5239421795945324 4.36170278397 7.410835915625338 1.3523072673813532 2.736848020432711 4.029621126508633 12.13961313634739" Properties=species:S:1:pos:R:3 unique_starting_index=40 config_type=initial n_minim_iter=8 stress="-0.00025928114752998995 0.0007726864101035268 -0.0010436360216167354 0.0007726864101035268 0.0017763056398840181 -0.0005404212058502037 -0.0010436360216167354 -0.0005404212058502037 -0.0008654672486677455" pbc="T T T"
Si       9.42060449       7.77373446      11.03005581
Si       2.73154509       4.50486653       4.63395144
Si       6.07297797       3.32488126       5.82790940
Si       6.47446586       8.99458768      10.76550447
Si       5.89594722       5.57398498      11.19480475
Si       8.53347750       8.40500961       5.57445788
Si       7.37964502       3.81164505       2.50758102
Si       7.99467504       8.81241876       7.79394380
Si       5.24715379       3.44987597       1.59046434
Si       8.24385085       9.49444498      12.41363473
Si       6.46032009       7.47001976       8.94456567
Si       5.30864224      10.90991520       9.73279766
Si       3.03030825       3.58352523       0.54525356
Si       2.88463972       3.61371397       6.85786261
Si       5.51186012       3.43288947      12.23077819
Si      10.05084715       8.49144699       8.83231029
Si       5.12322570       6.16149985       5.19472747
Si       6.20558588       8.28260061       5.14774698
Si       6.80258670       5.83123473       3.58759381
Si       4.91379389       4.87687796       7.31986627
Si       8.24790908       5.82971407      11.94372393
Si       4.59115143       3.28454018       3.87058014
22
Lattice="5.826980558933961 1.5359255875805637 0.5387835067496634 4.3688935504586315 7.392921985567253 1.3798246063203232 2.7607866582835205 4.045316247978695 12.186050261615067" Properties=species:S:1:pos:R:3 unique_starting_index=40 config_type=initial n_minim_iter=9 stress="-5.259755031015383e-08 0.0006429001073940522 -0.0003020990848913306 0.0006429001073940522 -9.78032589427859e-05 0.00025886480870539863 -0.0003020990848913306 0.00025886480870539863 0.0002122434611154027" pbc="T T T"
Si       9.45895424       7.77766758      11.09593444
Si       2.72961432       4.49498317       4.65125426
Si       6.07016655       3.32723286       5.86208643
Si       6.50406889       8.99458448      10.82651517
Si       5.92341310       5.58016612      11.23919828
Si       8.55378714       8.39308041       5.63085933
Si       7.38398968       3.79609494       2.54549508
Si       8.02629205       8.81224439       7.85991996
Si       5.25562561       3.43941177       1.60592230
Si       8.27500605       9.48728740      12.47184887
Si       6.48876410       7.46972328       9.00420706
Si       5.33859462      10.90478902       9.78524120
Si       3.03497899       3.55908158       0.56000085
Si       2.89969013       3.62593729       6.88950968
Si       5.53278633       3.44485277      12.26974338
Si      10.08477042       8.50126512       8.90090366
Si       5.14150124       6.17199608       5.23547186
Si       6.22419782       8.27138252       5.21017048
Si       6.80400548       5.82226961       3.61284895
Si       4.93149839       4.89581873       7.35685896
Si       8.27134653       5.83623802      11.99838835
Si       4.59597383       3.28710011       3.88988002
22
Lattice="5.822095156956568 1.5162882283376544 0.5503801711342515 4.344939158751511 7.384177760958173 1.3828618126538963 2.773826076882295 4.030179102421663 12.17972141325832" Properties=species:S:1:pos:R:3 unique_starting_index=40 config_type=initial n_minim_iter=10 stress="-0.0002549790044618695 -0.0012366805508917124 0.0007014392666702785 -0.0012366805508917124 0.00046848371978721036 -0.00034133365016019893 0.0007014392666702785 -0.00034133365016019893 -0.0005609102490380337" pbc="T T T"
Si       9.46306270       7.74223942      11.10484655
Si       2.71249013       4.48244614       4.64191737
Si       6.05590348       3.30299898       5.86910304
Si       6.49858597       8.97316786      10.82746378
Si       5.93070165       5.55308152      11.23318262
Si       8.53880382       8.36447644       5.64646203
Si       7.37060735       3.76285546       2.56489882
Si       8.01942589       8.79166574       7.87515317
Si       5.24732118       3.41830530       1.60965993
Si       8.27029156       9.45175026      12.46549274
Si       6.48914786       7.44963270       9.01233599
Si       5.32585972      10.89222220       9.77511963
Si       3.02245419       3.53849850       0.56418827
Si       2.90369768       3.62053556       6.88694356
Si       5.54409395       3.41235622      12.26004088
Si      10.08047188       8.47850424       8.91677816
Si       5.13351515       6.16826065       5.24100777
Si       6.20836739       8.25652198       5.23152762
Si       6.78066200       5.80005342       3.61387635
Si       4.93051604       4.88976276       7.35671232
Si       8.27466222       5.80035079      11.99899908
Si       4.58737364       3.27268056       3.88934544
22
Lattice="5.838383679384188 1.5382796179652718 0.5517664792189688 4.38389048651901 7.381988806345102 1.4064590113938045 2.785967080027237 4.067633934944321 12.220957759391533" Properties=species:S:1:pos:R:3 unique_starting_index=40 config_type=initial n_minim_iter=11 stress="0.00030147111332030565 0.000647546686491647 0.0002991080041823243 0.000647546686491647 -0.0013037836043402517 0.0008889063093888707 0.0002991080041823243 0.0008889063093888707 0.0009375296613117211" pbc="T T T"
Si       9.50975385       7.78675272      11.15252209
Si       2.72076854       4.49454465       4.65646798
Si       6.05934920       3.33633434       5.88963699
Si       6.54076018       9.00718086      10.88329662
Si       5.95821107       5.59167859      11.26852754
Si       8.59307103       8.38540695       5.69002927
Si       7.39406132       3.78263270       2.58518891
Si       8.07294288       8.82747761       7.92573152
Si       5.27067195       3.42861066       1.61431297
Si       8.31852092       9.48913946      12.51373303
Si       6.53643946       7.48496009       9.05918749
Si       5.37730270      10.90977810       9.82430883
Si       3.03846828       3.52786862       0.57621862
Si       2.92523182       3.65114559       6.90876094
Si       5.55626109       3.45327474      12.28385487
Si      10.13507248       8.53562823       8.96374455
Si       5.16549309       6.19561146       5.27110888
Si       6.25351418       8.28281093       5.28803107
Si       6.80225156       5.81811031       3.62862690
Si       4.95431624       4.92845098       7.38386987
Si       8.30642351       5.85415363      12.03529082
Si       4.59876039       3.29341233       3.90164320
22
Lattice="5.8413345429230095 1.536339218521156 0.5424281780414292 4.380555244617585 7.391479208183137 1.388949252815071 2.772691375250431 4.057814016105833 12.18112564305389" Properties=species:S:1:pos:R:3 unique_starting_index=40 config_type=initial n_minim_iter=12 stress="1.8942376280225238e-06 0.0001507623270541133 -0.00019398573478932653 0.0001507623270541133 0.00020475763684505964 -4.774640366154319e-05 -0.00019398573478932653 -4.774640366154319e-05 -6.420308760356108e-05" pbc="T T T"
Si       9.50087365       7.77032650      11.10426603
Si       2.70368403       4.50499108       4.62635259
Si       6.04088930       3.33261521       5.86419872
Si       6.52481978       9.00732481      10.84554419
Si       5.95065461       5.57849472      11.22413425
Si       8.59918733       8.37955625       5.66490159
Si       7.39262772       3.77794917       2.57072825
Si       8.06858911       8.83287571       7.89380384
Si       5.27136652       3.42256098       1.59704278
Si       8.30902551       9.48187185      12.45833264
Si       6.54243809       7.49125974       9.02355971
Si       5.36241600      10.91138889       9.77399396
Si       3.02896177       3.51979989       0.57022249
Si       2.92781828       3.65551005       6.87418628
Si       5.54672080       3.42597644      12.22802769
Si      10.13267679       8.54571829       8.92137821
Si       5.15836799       6.20127668       5.24206167
Si       6.24867412       8.30688359       5.28179431
Si       6.78552591       5.81633933       3.59970735
Si       4.94788492       4.93057920       7.35081083
Si       8.30470883       5.84534469      11.98154856
Si       4.58703707       3.28733065       3.87907589
22
Lattice="5.8439337673766865 1.5316616485509047 0.5492299168428282 4.3786324227823705 7.386262364440143 1.3983856920684967 2.7830586014321694 4.062243526049645 12.189193408773567" Properties=species:S:1:pos:R:3 unique_starting_index=40 config_type=initial n_minim_iter=13 stress="-1.4021539429222766e-05 -0.00043321993687438605 0.0002930705274650752 -0.00043321993687438605 -1.0307703668743347e-05 -7.952387072758806e-05 0.0002930705274650752 -7.952387072758806e-05 2.182023516550416e-05" pbc="T T T"
Si       9.52013084       7.76424638      11.11898418
Si       2.69228884       4.50335040       4.61786769
Si       6.02524407       3.33175251       5.87496398
Si       6.53166064       9.00707255      10.86580570
Si       5.96593975       5.57211604      11.23054666
Si       8.60948644       8.37138087       5.68977719
Si       7.38990593       3.76287577       2.59094030
Si       8.08432449       8.83700614       7.92034287
Si       5.27471283       3.41138794       1.60160637
Si       8.31960972       9.46970311      12.46707222
Si       6.55952904       7.49093661       9.04653838
Si       5.37243724      10.91238870       9.78055062
Si       3.02548795       3.49642076       0.57707466
Si       2.93466612       3.66426856       6.87661108
Si       5.55718340       3.41914528      12.22531738
Si      10.15301081       8.55451033       8.94634829
Si       5.16793670       6.21615772       5.25410082
Si       6.25398636       8.31056371       5.32200706
Si       6.77226453       5.81024350       3.60030375
Si       4.95558441       4.94635831       7.35919106
Si       8.31712918       5.83912406      11.98908099
Si       4.57968086       3.28346190       3.87939059
22
Lattice="5.843219859850762 1.5366978630191026 0.5389244705293597 4.3812118521686125 7.393387127257275 1.3877378935047555 2.7660856235167284 4.062825229758285 12.171058353879078" Properties=species:S:1:pos:R:3 unique_starting_index=40 config_type=initial n_minim_iter=14 stress="-2.947548154609246e-05 -7.471081717421903e-05 7.586985987940263e-05 -7.471081717421903e-05 -0.00036786444326646734 -0.00012183232336106782 7.586985987940263e-05 -0.00012183232336106782 -0.0002777225763774695" pbc="T T T"
Si       9.50215795       7.76979075      11.07580324
Si       2.69323333       4.51861829       4.59882563
Si       6.01553971       3.34553392       5.86034804
Si       6.50796962       9.01197637      10.84859246
Si       5.95685756       5.56909231      11.21725069
Si       8.60830195       8.38454657       5.66460467
Si       7.38798354       3.77690478       2.57403276
Si       8.07438649       8.84755269       7.89129579
Si       5.27412151       3.41545743       1.59930130
Si       8.30142656       9.47338959      12.44616315
Si       6.55057122       7.49455940       9.02732508
Si       5.36334201      10.91805337       9.76004962
Si       3.02262786       3.49524206       0.57251750
Si       2.92058420       3.66295585       6.85671474
Si       5.54752463       3.42265428      12.20767262
Si      10.14888508       8.55779667       8.91290231
Si       5.17152818       6.22554499       5.23410075
Si       6.24839382       8.32702608       5.30938566
Si       6.76553917       5.82103030       3.58173619
Si       4.94919183       4.94916238       7.34566849
Si       8.31006761       5.84078640      11.95994394
Si       4.56615769       3.27822734       3.86683411
22
Lattice="5.843475267423317 1.5456049866241766 0.5387917883334385 4.388216627908842 7.407546294587225 1.396146631148382 2.7649162356689687 4.085040470941706 12.18521493438999" Properties=species:S:1:pos:R:3 unique_starting_index=40 config_type=initial n_minim_iter=15 stress="0.00011901196623138699 0.0002779733194326627 -0.00025193378570608404 0.0002779733194326627 0.0008272303820139391 0.00037263785691321757 -0.00025193378570608404 0.00037263785691321757 0.0005879831832171788" pbc="T T T"
Si       9.50895910       7.79741639      11.08765540
Si       2.68792774       4.53557065       4.59409276
Si       5.99930091       3.36809969       5.86697928
Si       6.50654362       9.04074147      10.87258027
Si       5.96163733       5.58889503      11.22900844
Si       8.61924592       8.40666274       5.68278356
Si       7.38665753       3.78760984       2.58863117
Si       8.08627669       8.87923768       7.91102757
Si       5.27531613       3.41857839       1.59845052
Si       8.30617222       9.49902933      12.46261342
Si       6.56335093       7.52107133       9.04915399
Si       5.37565170      10.94916299       9.77594513
Si       3.02266049       3.48623883       0.57870617
Si       2.92154032       3.68679707       6.85856514
Si       5.54564723       3.43796102      12.21206562
Si      10.16239603       8.59924532       8.92738055
Si       5.18159992       6.25884294       5.24750556
Si       6.25486259       8.36101818       5.34159341
Si       6.75874638       5.83966588       3.57827493
Si       4.94853222       4.97665341       7.35287802
Si       8.31564637       5.86756626      11.97005851
Si       4.55647754       3.28944155       3.86845726
22
Lattice="5.8402757095421505 1.5406502034898166 0.5380841558974048 4.3817190353139965 7.401146415187426 1.3886594044013294 2.7633497769786306 4.068992376328946 12.178416765154738" Properties=species:S:1:pos:R:3 unique_starting_index=40 config_type=initial n_minim_iter=16 stress="2.429516142970352e-05 -3.705965533561435e-05 -3.040404005137635e-06 -3.705965533561435e-05 -0.0001289740592296031 -0.00010025403232435277 -3.040404005137635e-06 -0.00010025403232435277 -2.687411520570107e-05" pbc="T T T"
Si       9.50061523       7.77807295      11.07553636
Si       2.68863108       4.53099865       4.58735178
Si       5.99814678       3.36273140       5.86141429
Si       6.49379897       9.01863269      10.86153648
Si       5.95804965       5.57065579      11.22452729
Si       8.60913047       8.39250407       5.66935888
Si       7.38247444       3.78222818       2.58911244
Si       8.07578684       8.85909607       7.89989405
Si       5.26956617       3.40915081       1.59557400
Si       8.29804301       9.47583238      12.45565095
Si       6.55850661       7.50374917       9.04111391
Si       5.36962279      10.93320728       9.76630174
Si       3.02096002       3.48076654       0.57662842
Si       2.91387571       3.67644943       6.84998039
Si       5.54539459       3.42104277      12.21159108
Si      10.15270587       8.57714782       8.91060008
Si       5.18060396       6.25156150       5.24472207
Si       6.24567825       8.35050872       5.32769471
Si       6.75751631       5.83373988       3.56994217
Si       4.94119046       4.95928895       7.34535982
Si       8.31499973       5.84678457      11.96588231
Si       4.55318203       3.28151495       3.86532150
22
Lattice="5.838758034408551 1.5434115419387058 0.5407482570349548 4.382695058857646 7.406772617656159 1.3945922785365992 2.766991538484879 4.079085236036023 12.183606961178972" Properties=species:S:1:pos:R:3 unique_starting_index=40 config_type=initial n_minim_iter=17 stress="-0.000127764500543969 1.1891150132220175e-05 0.00010799848246756218 1.1891150132220175e-05 0.00019255758901316357 0.00018234873539200715 0.00010799848246756218 0.00018234873539200715 -0.00013673782605625275" pbc="T T T"
Si       9.50433151       7.79112367      11.08523885
Si       2.68745265       4.53822572       4.58838285
Si       5.99581323       3.37348301       5.86249788
Si       6.49437311       9.02864892      10.87295483
Si       5.96071898       5.58007257      11.23167668
Si       8.61051683       8.40206724       5.67901754
Si       7.37827434       3.78823133       2.59728221
Si       8.07592767       8.87155231       7.90901695
Si       5.27055328       3.40828458       1.59816823
Si       8.30178129       9.48609319      12.46573765
Si       6.56360129       7.51445797       9.05076199
Si       5.37338652      10.94693596       9.77578568
Si       3.02084425       3.47712899       0.58169259
Si       2.91416110       3.68321181       6.84864909
Si       5.54827484       3.42918900      12.21325339
Si      10.15677635       8.59265643       8.91806141
Si       5.18581288       6.26393048       5.25456307
Si       6.24812713       8.36397789       5.34002416
Si       6.75626065       5.84417523       3.57668251
Si       4.94075832       4.96760194       7.35026982
Si       8.32080009       5.85809919      11.97455521
Si       4.55479549       3.28712139       3.86747772
22
Lattice="5.839516074154985 1.5435725131847795 0.5405489800130466 4.383660685313953 7.405763398724679 1.3948788723670942 2.766783727265866 4.078854028060972 12.187074102261711" Properties=species:S:1:pos:R:3 unique_starting_index=40 config_type=initial n_minim_iter=18 stress="-5.110916551732803e-05 1.1258628450308875e-05 2.877828439670555e-05 1.1258628450308875e-05 8.026525558988703e-05 7.867139499958861e-05 2.877828439670555e-05 7.867139499958861e-05 -4.912112752161717e-05" pbc="T T T"
Si       9.50651524       7.79120892      11.08816828
Si       2.68664249       4.53849775       4.58778844
Si       5.99518796       3.37646906       5.86095554
Si       6.49331240       9.02564125      10.87762151
Si       5.96108243       5.57876319      11.23529748
Si       8.61194749       8.40197109       5.68107681
Si       7.37637047       3.78936474       2.59938153
Si       8.07533071       8.87163648       7.91018710
Si       5.27289316       3.40467708       1.59802844
Si       8.30263688       9.48214586      12.46902227
Si       6.56503238       7.51312086       9.05411355
Si       5.37320432      10.94615466       9.77833963
Si       3.02149061       3.47231303       0.58331595
Si       2.91244157       3.68200542       6.84674967
Si       5.54866390       3.42796054      12.21382290
Si      10.15967156       8.59374773       8.91885756
Si       5.18930292       6.26619435       5.25871823
Si       6.25006474       8.36558575       5.34382175
Si       6.75632066       5.84681257       3.57875288
Si       4.93986254       4.96701100       7.35244290
Si       8.32376230       5.85683482      11.97826463
Si       4.55696060       3.28725759       3.86727213
22
Lattice="5.84100754701213 1.5426751901982536 0.5402433889435211 4.384548493448228 7.402189804778187 1.3943964931521993 2.766616454542815 4.075634649525548 12.192057712760628" Properties=species:S:1:pos:R:3 unique_starting_index=40 config_type=initial n_minim_iter=19 stress="0.00010282701258403755 2.004797836828946e-06 -8.73204603627777e-05 2.004797836828946e-06 -0.0001183813388792269 -0.00014691684468796918 -8.73204603627777e-05 -0.00014691684468796918 0.0001146254052060117" pbc="T T T"
Si       9.50975062       7.78728143      11.09145855
Si       2.68753502       4.53668500       4.58727170
Si       5.99552599       3.37852373       5.85907507
Si       6.49237980       9.01765014      10.88341769
Si       5.96237551       5.57424724      11.24045085
Si       8.61488081       8.39893187       5.68328446
Si       7.37427676       3.79015671       2.60180796
Si       8.07519223       8.86712760       7.91084686
Si       5.27641218       3.39849598       1.59772765
Si       8.30362457       9.47220468      12.47275689
Si       6.56571123       7.50769150       9.05782859
Si       5.37143736      10.93983928       9.78052064
Si       3.02237032       3.46513781       0.58552674
Si       2.90957834       3.67822634       6.84525308
Si       5.54934142       3.42255887      12.21552216
Si      10.16214485       8.59071676       8.91994204
Si       5.19285976       6.26557317       5.26424650
Si       6.25331453       8.36424197       5.34717921
Si       6.75630881       5.84820758       3.58044479
Si       4.93896106       4.96321613       7.35624758
Si       8.32752233       5.85085900      11.98267055
Si       4.56014318       3.28602302       3.86731246
22
Lattice="5.841046296841798 1.5413615929553812 0.5432214333337989 4.383885463144105 7.399639374502166 1.3985817663515665 2.771063923941459 4.077383186179004 12.19697879049467" Properties=species:S:1:pos:R:3 unique_starting_index=40 config_type=initial n_minim_iter=20 stress="2.620758905358845e-05 -7.211419889153068e-06 -6.2035482197612875e-06 -7.211419889153068e-06 4.7495597045978085e-06 -1.991869149057201e-05 -6.2035482197612875e-06 -1.991869149057201e-05 3.1826145188799646e-05" pbc="T T T"
Si       9.51489853       7.78683620      11.09832406
Si       2.69357251       4.53660897       4.58896350
Si       5.99704397       3.38292329       5.86152083
Si       6.49538009       9.01563122      10.89262842
Si       5.96869989       5.57556272      11.24725423
Si       8.62090243       8.39812517       5.69203793
Si       7.37219947       3.79332784       2.60985980
Si       8.07873175       8.86368267       7.91845531
Si       5.27809994       3.39304143       1.60013601
Si       8.30700752       9.46774768      12.47943451
Si       6.56619673       7.50696304       9.06459883
Si       5.37003924      10.93509418       9.78551783
Si       3.02227808       3.45891915       0.59146544
Si       2.90841517       3.67904239       6.84859803
Si       5.55271496       3.41891650      12.21888535
Si      10.16056490       8.59148513       8.92883432
Si       5.19340241       6.26543797       5.27408660
Si       6.25845567       8.36545576       5.35447974
Si       6.75400382       5.85105892       3.58314453
Si       4.93958858       4.96253044       7.36449834
Si       8.33204050       5.84851617      11.98722002
Si       4.56200752       3.28723737       3.87051432
22
Lattice="5.8409571313912165 1.542480862365216 0.5454033193475767 4.385251596485142 7.400351667769498 1.4020128814003632 2.775250906482788 4.081267766194896 12.198080658162896" Properties=species:S:1:pos:R:3 unique_starting_index=40 config_type=initial n_minim_iter=21 stress="-0.00012693200461122987 6.1052096103089726e-06 4.313597343860767e-05 6.1052096103089726e-06 5.0695970073688304e-05 0.0001314603238009855 4.313597343860767e-05 0.0001314603238009855 -0.00012430280555698336" pbc="T T T"
Si       9.52039327       7.78991259      11.10175662
Si       2.69500798       4.53995190       4.58738568
Si       5.99846612       3.39029277       5.86218398
Si       6.49794413       9.01816335      10.89689727
Si       5.97376308       5.57852046      11.24959903
Si       8.62713682       8.40059097       5.69747010
Si       7.37132528       3.79703273       2.61769543
Si       8.08110462       8.86678489       7.92436182
Si       5.27913317       3.38984803       1.60102679
Si       8.31180467       9.46914133      12.48217697
Si       6.56813003       7.50992083       9.06816477
Si       5.37296473      10.93587709       9.78897103
Si       3.02371003       3.45499857       0.59622203
Si       2.90916676       3.68149683       6.84918124
Si       5.55614860       3.42125740      12.21681275
Si      10.16372325       8.59743280       8.93422047
Si       5.19791930       6.27059346       5.28060844
Si       6.26376507       8.37047116       5.36081451
Si       6.75386355       5.85842566       3.58746330
Si       4.93848043       4.96511030       7.36916208
Si       8.33780309       5.85149933      11.98745055
Si       4.56482547       3.29025330       3.87087993
