8
Lattice="7.01429542146739 0.2394438154660662 0.22602046028717712 0.6679449847874993 6.986524393264558 0.2260204602868583 0.6679449847871987 0.6282736506561406 6.961887715701869" Properties=species:S:1:pos:R:3 unique_starting_index=114 config_type=initial n_minim_iter=1 energy=-1299.1465886841947 free_energy=-1299.1465886841947 pbc="T T T"
Si       4.71268022       7.13027013       0.36189263
Si       1.05886387       4.65655012       7.09775988
Si       7.40521431       0.60705252       4.23996746
Si       6.05649536       0.92675302       0.87498361
Si       1.29548701       5.98838762       0.87498361
Si       1.29548701       1.21845170       5.92820603
Si       1.27479373       1.19898747       1.13195645
Si       7.24309058       6.81280857       6.43106357
