8
Lattice="5.360749999999999 7.917896525920966e-16 -4.955824408501222e-16 0.32782908749181494 5.3507166484401205 -3.955963537709105e-16 0.32782908749181416 0.3083582963876488 5.341824015534692" Properties=species:S:1:pos:R:3 unique_starting_index=114 config_type=initial n_minim_iter=1 pbc="T T T"
Si       3.63127322       4.91671975       0.24470415
Si       0.74872263       3.59220944       4.89444626
Si       5.12958284       0.43584598       3.30417563
Si       4.48067842       0.60793048       0.54231266
Si       0.84937666       4.43704050       0.57566701
Si       0.88080221       0.79700414       4.39649104
Si       0.71600431       0.67347859       0.63572300
Si       5.42541339       5.10318118       4.81709397
8
Lattice="5.447279576496974 0.020951351515364796 0.019776806947037782 0.35403281970552297 5.435803023125722 0.01977680694703802 0.35403281970552225 0.33300570728775364 5.42562925633788" Properties=species:S:1:pos:R:3 unique_starting_index=114 config_type=initial n_minim_iter=2 pbc="T T T"
Si       3.70717543       5.00736301       0.27902872
Si       0.79278164       3.66555456       4.98296077
Si       5.22469814       0.47416006       3.37229782
Si       4.55599974       0.63995043       0.57107565
Si       0.88448611       4.51035196       0.60597615
Si       0.91736840       0.82993908       4.46793397
Si       0.73565049       0.69195791       0.65316637
Si       5.54854998       5.21900430       4.92642398
8
Lattice="5.8190052776205645 0.13847731077429157 0.13071419472485596 0.49407117333649664 5.799645856623762 0.13071419472485518 0.49407117333649503 0.46472674670179426 5.782474151594255" Properties=species:S:1:pos:R:3 unique_starting_index=114 config_type=initial n_minim_iter=3 pbc="T T T"
Si       4.06057454       5.41215647       0.46414152
Si       1.02213685       4.00556415       5.37641356
Si       5.65034561       0.67786667       3.68906790
Si       4.88553061       0.80443763       0.71985966
Si       1.06235837       4.82960282       0.76161565
Si       1.10169973       0.99685122       4.77768484
Si       0.82890455       0.77967332       0.73596440
Si       6.12361747       5.75991675       5.43701257
8
Lattice="6.213742311527917 0.24635157762487386 0.23254096940775767 0.6258831245001863 6.187047189761563 0.2325409694077584 0.6258831245001859 0.5887099753266255 6.163363432066982" Properties=species:S:1:pos:R:3 unique_starting_index=114 config_type=initial n_minim_iter=4 pbc="T T T"
Si       4.41576508       5.83271208       0.63524141
Si       1.23854483       4.34816178       5.78640985
Si       6.09183526       0.86763114       4.00746833
Si       5.23715452       0.95962577       0.86219962
Si       1.23462552       5.17133157       0.90834292
Si       1.27810049       1.15863363       5.11038986
Si       0.92225429       0.86747873       0.81884739
Si       6.70917730       6.31069835       5.95691705
8
Lattice="6.610783928560728 0.3136197541333054 0.29603805404742817 0.7173059185051327 6.579232000741195 0.29603805404742883 0.7173059185051319 0.6747028846991601 6.5512371554081135" Properties=species:S:1:pos:R:3 unique_starting_index=114 config_type=initial n_minim_iter=5 pbc="T T T"
Si       4.73558627       6.23486928       0.75086611
Si       1.39645221       4.65890797       6.18123531
Si       6.51279798       1.00004297       4.29494455
Si       5.58245132       1.07434289       0.96848627
Si       1.36825177       5.50908880       1.01674415
Si       1.41371903       1.28420133       5.44133866
Si       1.00295249       0.94338402       0.89049738
Si       7.22238536       6.79342539       6.41258214
8
Lattice="6.801407962518168 0.3319676550855274 0.3133573613364782 0.7472768222397337 6.768377216702082 0.31335736133647857 0.7472768222397326 0.702893723064078 6.739069920809004" Properties=species:S:1:pos:R:3 unique_starting_index=114 config_type=initial n_minim_iter=6 pbc="T T T"
Si       4.87659190       6.42272827       0.78652541
Si       1.45141455       4.79681055       6.36672706
Si       6.70892837       1.04309180       4.42192818
Si       5.74181089       1.11309543       1.00577984
Si       1.41738819       5.66573669       1.05328309
Si       1.46214445       1.33046295       5.59562050
Si       1.03967806       0.97792834       0.92310513
Si       7.44712243       7.00481462       6.61212077
8
Lattice="6.998431437855574 0.3525789467989209 0.33281317242560804 0.7798982292911796 6.96377148218116 0.3328131724256088 0.7798982292911786 0.733577643094216 6.933018224794443" Properties=species:S:1:pos:R:3 unique_starting_index=114 config_type=initial n_minim_iter=7 pbc="T T T"
Si       5.02322980       6.62269796       0.82608336
Si       1.51130283       4.94005418       6.56408472
Si       6.91749123       1.09031410       4.55356015
Si       5.89902627       1.15212340       1.04667508
Si       1.46999829       5.82002355       1.08988943
Si       1.51071367       1.38019594       5.74754134
Si       1.08699504       1.02243502       0.96511674
Si       7.67932010       7.22322134       6.81828349
8
Lattice="7.033317156313706 0.33954736959571935 0.3205121527814024 0.7690244291982863 6.999388835090702 0.3205121527814036 0.7690244291982855 0.7233496718743396 6.969285283088375" Properties=species:S:1:pos:R:3 unique_starting_index=114 config_type=initial n_minim_iter=8 pbc="T T T"
Si       5.02648162       6.65782192       0.81202787
Si       1.49951620       4.94403424       6.59996031
Si       6.95274830       1.07634523       4.55546610
Si       5.91368771       1.13878369       1.04168891
Si       1.46515900       5.83500897       1.07685924
Si       1.49829552       1.37610842       5.76325278
Si       1.10402198       1.03845067       0.98023454
Si       7.68590695       7.22941699       6.82413180
8
Lattice="7.048711373183405 0.325737801104208 0.3074767564787691 0.756182118706981 7.015598744288411 0.30747675647877143 0.756182118706981 0.7112701062229877 6.98621947355144" Properties=species:S:1:pos:R:3 unique_starting_index=114 config_type=initial n_minim_iter=9 pbc="T T T"
Si       5.00453389       6.68410392       0.79870142
Si       1.48640639       4.92284857       6.62696663
Si       6.97763894       1.06168583       4.53275929
Si       5.90844238       1.11926994       1.03828209
Si       1.46032097       5.83005022       1.05757425
Si       1.47849752       1.37247431       5.75941365
Si       1.12710378       1.06016157       1.00072832
Si       7.66548111       7.21020429       6.80599618
8
Lattice="7.044217420608202 0.34299278575853986 0.3237644169732536 0.7731299870624455 7.0100579985466105 0.32376441697325475 0.7731299870624451 0.7272113878629937 6.97974928905385" Properties=species:S:1:pos:R:3 unique_starting_index=114 config_type=initial n_minim_iter=10 pbc="T T T"
Si       4.98824914       6.71311711       0.82923205
Si       1.51750225       4.90462810       6.65417214
Si       7.00560196       1.09112675       4.51300126
Si       5.90345751       1.12790629       1.06368887
Si       1.48582998       5.82349311       1.06473207
Si       1.48681286       1.39752169       5.75245494
Si       1.15153098       1.08313796       1.02241664
Si       7.67627772       7.22035966       6.81558223
8
Lattice="6.991235846799461 0.3390641061882342 0.32005598139277297 0.7659686472911776 6.957415839594898 0.32005598139277486 0.7659686472911772 0.72047538237728 6.9274083335443395" Properties=species:S:1:pos:R:3 unique_starting_index=114 config_type=initial n_minim_iter=11 pbc="T T T"
Si       4.90162474       6.70105128       0.83158201
Si       1.51385247       4.81806487       6.64199093
Si       6.98826131       1.08853256       4.42728390
Si       5.86044742       1.10418138       1.06738878
Si       1.48552192       5.78042125       1.04083337
Si       1.46050214       1.39882506       5.71083193
Si       1.16652933       1.09724552       1.03573332
Si       7.59395925       7.14293034       6.74249365
8
Lattice="7.081664693284395 0.3830407853350308 0.361567303133534 0.815393066538479 7.044986104910488 0.36156730313353486 0.8153930665384782 0.7669643313465417 7.012440791017011" Properties=species:S:1:pos:R:3 unique_starting_index=114 config_type=initial n_minim_iter=12 pbc="T T T"
Si       4.98864152       6.82440021       0.90103372
Si       1.59547559       4.90024392       6.76113241
Si       7.11670077       1.16243947       4.50246032
Si       5.94907000       1.15192432       1.11943012
Si       1.54554536       5.86553248       1.08549786
Si       1.51357531       1.45570935       5.79322772
Si       1.20007164       1.12879564       1.06551472
Si       7.74939770       7.28913682       6.88050370
8
Lattice="7.009299947563261 0.3654394429697428 0.3449527019364817 0.7933993036908962 6.973833184575839 0.34495270193648225 0.793399303690896 0.7462768466125821 6.942363611989396" Properties=species:S:1:pos:R:3 unique_starting_index=114 config_type=initial n_minim_iter=13 pbc="T T T"
Si       4.92166621       6.75219661       0.87321997
Si       1.55951100       4.83534651       6.69065169
Si       7.04053652       1.13107389       4.44173253
Si       5.88654472       1.12342877       1.09503295
Si       1.51577157       5.80471414       1.05845566
Si       1.48130945       1.42785661       5.73406888
Si       1.18509929       1.11471255       1.05222114
Si       7.64524927       7.19117409       6.78803282
8
Lattice="7.012020886126225 0.36906808383122847 0.34837791914717686 0.7971875482229076 6.9763271261410615 0.3483779191471776 0.7971875482229076 0.7498400954967137 6.944656015719314" Properties=species:S:1:pos:R:3 unique_starting_index=114 config_type=initial n_minim_iter=14 pbc="T T T"
Si       4.92356408       6.76128508       0.87927045
Si       1.56617896       4.83683940       6.69937637
Si       7.04972405       1.13719145       4.44272014
Si       5.89075895       1.12512780       1.09859443
Si       1.51967593       5.80869706       1.05994662
Si       1.48326301       1.43164859       5.73795926
Si       1.18838494       1.11780305       1.05513838
Si       7.65155594       7.19710618       6.79363236
8
Lattice="7.010011381739494 0.37459333199813805 0.35359341878935135 0.8025795667583798 6.973983494066835 0.35359341878935235 0.80257956675838 0.754911865248477 6.942015712819649" Properties=species:S:1:pos:R:3 unique_starting_index=114 config_type=initial n_minim_iter=15 pbc="T T T"
Si       4.92122065       6.77145944       0.88845250
Si       1.57577053       4.83390392       6.70900467
Si       7.05973605       1.14618759       4.43923466
Si       5.89271482       1.12589866       1.10308938
Si       1.52431896       5.81037213       1.06045716
Si       1.48415204       1.43624586       5.73960212
Si       1.19312078       1.12225761       1.05934322
Si       7.65395609       7.19936378       6.79576340
8
Lattice="7.003774754596133 0.4273707633579032 0.4034121176163563 0.8548768260697012 6.964531010394041 0.4034121176163565 0.8548768260697015 0.8041030273578624 6.929707919730378" Properties=species:S:1:pos:R:3 unique_starting_index=114 config_type=initial n_minim_iter=16 pbc="T T T"
Si       4.91024532       6.88304112       0.97579672
Si       1.66855355       4.81722336       6.81536732
Si       7.17043771       1.23236209       4.41645221
Si       5.92457346       1.13259293       1.14413607
Si       1.56755407       5.83964156       1.06477481
Si       1.49278205       1.47903330       5.76857409
Si       1.24087640       1.16717688       1.10174429
Si       7.68737093       7.23079401       6.82543163
