18
Lattice="6.685859058017146 0.9398618057184968 -0.25418244731321193 -0.8345995657522151 5.439975888124272 -0.669533491354716 -3.04406384800601 -3.413996840279248 10.215769368601789" Properties=species:S:1:pos:R:3 unique_starting_index=108 config_type=initial n_minim_iter=1 energy=-2930.6227862004143 free_energy=-2930.6227862004143 pbc="T T T"
Si       4.17097310      -1.34733377       9.32653450
Si       0.92934456       1.13049214       7.23053543
Si      -1.69697204       2.98026710       4.85922821
Si       3.77101663       3.94477611       2.55128376
Si       3.81357259       0.06132617       5.25005981
Si       3.16919414       6.15072752       0.16933984
Si       1.47254815       3.24132586      -0.05338489
Si       1.78079557      -0.86171916       6.01269685
Si       2.71621313       2.45835597       4.18488771
Si       5.26812066       3.81107560      -1.11130695
Si       0.42952256       4.20790633       1.81492458
Si       3.05691889       0.30586398       2.98887822
Si       4.30098596       2.21436784       6.18461797
Si       2.09968277       3.09353686       6.78995661
Si       0.35024456       2.79180612       3.65966229
Si      -1.13010564       1.53634401       8.59065564
Si       3.71117471       2.92414961       0.41891648
Si      -1.18197537       4.97666844       0.30261721
18
Lattice="6.609551862751104 0.9721836355869156 -0.22779520702628595 -0.8099888051218295 5.495054049042823 -0.691324332764766 -2.9743235450754764 -3.4917239559965276 10.222527420896155" Properties=species:S:1:pos:R:3 unique_starting_index=108 config_type=initial n_minim_iter=2 stress="-0.004304512435542858 0.0013626025800673412 0.00047294438920888066 0.0013626025800673412 0.002831868597203896 -0.0014359663689250653 0.00047294438920888066 -0.0014359663689250653 0.0003776451598621809" pbc="T T T"
Si       4.15581841      -1.37933487       9.35640327
Si       0.95385693       1.11653448       7.23948896
Si      -1.64800454       2.98887973       4.84858788
Si       3.75231084       3.98607265       2.56107716
Si       3.79641619       0.05977515       5.27535715
Si       3.15300436       6.22294884       0.16352451
Si       1.46731869       3.27746351      -0.05905062
Si       1.78321721      -0.88181162       6.02936312
Si       2.70867590       2.47491807       4.18709019
Si       5.21482993       3.87224149      -1.10003914
Si       0.44795275       4.25026282       1.80435992
Si       3.03018917       0.31036103       2.99964527
Si       4.28359243       2.23270365       6.20150498
Si       2.11767526       3.11237860       6.79620316
Si       0.37451262       2.81222775       3.65942904
Si      -1.07455660       1.52137634       8.58834384
Si       3.68188490       2.96475222       0.42637373
Si      -1.15144660       5.02342229       0.27925663
18
Lattice="6.646771893930468 0.9502834114418716 -0.14063011338579473 -0.8447899081188619 5.5257594261497065 -0.6726605574179443 -2.855771377322252 -3.4463474857866876 10.157003846594783" Properties=species:S:1:pos:R:3 unique_starting_index=108 config_type=initial n_minim_iter=3 stress="0.005043144515024905 -0.004920154859504108 0.007824281310067724 -0.004920154859504108 0.006788208795919965 0.0032731397093726184 0.007824281310067724 0.0032731397093726184 0.0040168673034939525" pbc="T T T"
Si       4.27692549      -1.37133140       9.38008345
Si       1.04680767       1.11663874       7.26384243
Si      -1.63250671       3.02813242       4.85972535
Si       3.80306269       3.97816589       2.65341910
Si       3.92372741       0.09420094       5.34851240
Si       3.14354037       6.24973877       0.22969935
Si       1.47194277       3.27378695      -0.04606576
Si       1.86377781      -0.84654119       6.04797232
Si       2.75146774       2.46466673       4.17767687
Si       5.23082859       3.88252100      -1.00633648
Si       0.46651993       4.31303828       1.83118623
Si       3.04157040       0.32371790       3.00058615
Si       4.36872499       2.27168909       6.24981143
Si       2.21378405       3.17398102       6.83894152
Si       0.43805238       2.87344546       3.70050471
Si      -0.99177792       1.58160588       8.57691310
Si       3.72988575       2.95897417       0.49217314
Si      -1.17597422       5.06202957       0.26800324
18
Lattice="6.620010645591706 0.9864825846636359 -0.19110880768535607 -0.7992899084978229 5.470175096094336 -0.6769477786375144 -2.9386420696973827 -3.4638407390624617 10.107026373289465" Properties=species:S:1:pos:R:3 unique_starting_index=108 config_type=initial n_minim_iter=4 stress="-0.005104881914335553 -0.0018377801144887614 0.0017496676020971188 -0.0018377801144887614 -0.005996981836422463 1.7243992135789916e-05 0.0017496676020971188 1.7243992135789916e-05 -0.007938001712946223" pbc="T T T"
Si       4.16152650      -1.36668580       9.27067389
Si       0.99735430       1.06823771       7.20468345
Si      -1.65301518       2.96860665       4.83652536
Si       3.79477170       3.94213209       2.60928882
Si       3.88787289       0.11640509       5.29485913
Si       3.16206592       6.21342805       0.18248489
Si       1.49215172       3.24266631      -0.07844348
Si       1.80017214      -0.83544030       5.99346585
Si       2.71209931       2.42438951       4.08610718
Si       5.24388610       3.89434432      -1.04406518
Si       0.48352512       4.28807177       1.80079227
Si       2.98111242       0.33608497       2.93476722
Si       4.30863235       2.26725677       6.15635017
Si       2.17803667       3.14767334       6.76331504
Si       0.44333751       2.85715294       3.67583943
Si      -1.04527610       1.53566261       8.51275145
Si       3.74302282       2.94844725       0.45687278
Si      -1.13935517       5.00684095       0.24749483
18
Lattice="6.650099093592254 1.017943086062747 -0.22521831477833587 -0.7764046566123544 5.485334650659629 -0.6832997744279381 -3.0124458310670117 -3.4994774919014966 10.187743581675123" Properties=species:S:1:pos:R:3 unique_starting_index=108 config_type=initial n_minim_iter=5 stress="0.0008602008052445833 0.000874842917868165 -0.0013208239011896043 0.000874842917868165 -0.00030136768434566643 -0.002152749328668472 -0.0013208239011896043 -0.002152749328668472 -0.0009831260768054847" pbc="T T T"
Si       4.12388792      -1.36550958       9.30783954
Si       0.97196362       1.06323296       7.24603595
Si      -1.67236162       2.96447324       4.87420741
Si       3.81322321       3.96458771       2.60627180
Si       3.88304419       0.12954876       5.31341457
Si       3.19810440       6.24651086       0.15954920
Si       1.51366034       3.25654345      -0.09232826
Si       1.77513859      -0.83527310       6.02393907
Si       2.71044943       2.43177104       4.08755980
Si       5.28732391       3.93291451      -1.07921068
Si       0.49447079       4.30530529       1.80431327
Si       2.97498796       0.34716654       2.93498870
Si       4.30321544       2.28704707       6.17078553
Si       2.16674512       3.16027011       6.79218642
Si       0.44224915       2.87044668       3.69795442
Si      -1.08502526       1.52640152       8.56883168
Si       3.77082906       2.97243994       0.43988350
Si      -1.12437821       5.01781265       0.24672576
18
Lattice="6.622089272496662 1.0260605400168292 -0.22792001292384953 -0.7635522860108884 5.478998105840109 -0.6414831723739853 -3.0173789086499676 -3.4185778145888306 10.23928867859299" Properties=species:S:1:pos:R:3 unique_starting_index=108 config_type=initial n_minim_iter=6 stress="-0.0011327798433469112 0.0012225669238848152 -0.0011004271207792212 0.0012225669238848152 0.001033197431845658 0.003199667322099749 -0.0011004271207792212 0.003199667322099749 0.0021013951177088846" pbc="T T T"
Si       4.08786787      -1.27842557       9.35892699
Si       0.96242619       1.12839992       7.31186608
Si      -1.66568266       3.00210456       4.94108300
Si       3.79419523       3.99043735       2.65505313
Si       3.86137322       0.17974264       5.35503368
Si       3.19303881       6.24928336       0.20344615
Si       1.51635754       3.25416971      -0.06933388
Si       1.76562594      -0.77795112       6.05874297
Si       2.69618236       2.45736585       4.12155246
Si       5.27525327       3.93373370      -1.05903179
Si       0.49317045       4.32059427       1.84926899
Si       2.95920915       0.37623233       2.95505039
Si       4.27633099       2.34792645       6.23108524
Si       2.14672924       3.21656975       6.86635347
Si       0.43873591       2.91947374       3.75677064
Si      -1.09044703       1.59594772       8.64589195
Si       3.76157983       2.98515848       0.46458310
Si      -1.11308274       5.01712970       0.29156069
18
Lattice="6.610553461593533 1.0045361321076383 -0.20737742394476208 -0.7805063598516457 5.467926981669418 -0.6514738163283788 -2.9680875833263225 -3.399109121894982 10.354931509618963" Properties=species:S:1:pos:R:3 unique_starting_index=108 config_type=initial n_minim_iter=7 stress="0.0014566837997101124 -0.0022835973935869222 0.002672483223868042 -0.0022835973935869222 0.0006653062972610522 0.0010316689003566598 0.002672483223868042 0.0010316689003566598 0.009829876452954925" pbc="T T T"
Si       4.10445000      -1.27345533       9.48141438
Si       0.99397147       1.13569018       7.42191691
Si      -1.65080455       2.99632386       5.00798049
Si       3.76815996       3.96055052       2.70503582
Si       3.88517269       0.16985422       5.46098626
Si       3.16876889       6.20672915       0.19790092
Si       1.51966566       3.22567643      -0.06660323
Si       1.81664089      -0.76127383       6.13412680
Si       2.70060855       2.38833692       4.12755274
Si       5.27192703       3.91623255      -1.03822915
Si       0.47507199       4.30277702       1.85559992
Si       2.96969773       0.36720423       2.99680059
Si       4.27139552       2.33823999       6.32794502
Si       2.13426344       3.18613058       6.96143624
Si       0.43574884       2.98468116       3.84039522
Si      -1.06964960       1.59447270       8.74172604
Si       3.76796218       2.98276058       0.49549605
Si      -1.13027653       5.00029909       0.28753645
18
Lattice="6.645898362867133 1.0434283582791815 -0.21172846939344722 -0.7582389954741623 5.516728755176168 -0.6130908402800017 -3.016270998356774 -3.3926386591179436 10.23200079165371" Properties=species:S:1:pos:R:3 unique_starting_index=108 config_type=initial n_minim_iter=8 stress="0.003715616103348741 -0.001760348811144655 0.0012954485010829107 -0.001760348811144655 0.005436075639288273 0.002988947910802776 0.0012954485010829107 0.002988947910802776 0.0033135255219248995" pbc="T T T"
Si       4.08211774      -1.21093999       9.35820019
Si       0.99930873       1.19459519       7.36578136
Si      -1.65475508       3.04037091       4.98479053
Si       3.78135742       4.01973658       2.69774780
Si       3.90935317       0.22093847       5.42383729
Si       3.20498939       6.26939054       0.20635237
Si       1.55558684       3.24941158      -0.05416576
Si       1.83680741      -0.70929663       6.05923919
Si       2.71321666       2.39051865       4.03703254
Si       5.33247066       3.98225431      -1.00224410
Si       0.48425772       4.35439001       1.84095515
Si       2.98073703       0.39693688       2.94911339
Si       4.27371131       2.42182867       6.26993836
Si       2.12477517       3.25191898       6.90459275
Si       0.44116390       3.11078180       3.85130658
Si      -1.09062691       1.64839317       8.65291742
Si       3.81820897       3.04516993       0.51232885
Si      -1.11745268       5.04234609       0.30751152
18
Lattice="6.650972598765616 1.0995519636129607 -0.20586303152418625 -0.7080461889756882 5.474658675649407 -0.6174460919719084 -3.0362888834662223 -3.4045608681959507 10.240223866850277" Properties=species:S:1:pos:R:3 unique_starting_index=108 config_type=initial n_minim_iter=9 stress="0.0007224110579544663 0.0012618717082603227 0.0010166406539711993 0.0012618717082603227 -0.0029493001214965383 -0.0013729756645275981 0.0010166406539711993 -0.0013729756645275981 0.00035669368803492975" pbc="T T T"
Si       4.05642302      -1.16531051       9.36251340
Si       1.02302696       1.18841847       7.38937226
Si      -1.62724907       2.99740243       4.99285992
Si       3.80284601       4.01376678       2.71225409
Si       3.93667081       0.26030282       5.46043737
Si       3.25346209       6.25368826       0.18923616
Si       1.59757718       3.22968014      -0.05714986
Si       1.85734034      -0.66758457       6.06972656
Si       2.72564498       2.35268699       3.99189768
Si       5.38049066       4.01484147      -0.98783631
Si       0.52490399       4.32999524       1.82459963
Si       2.98131150       0.40488629       2.93058576
Si       4.27913556       2.44846212       6.28277508
Si       2.14527829       3.24039889       6.91705265
Si       0.47677286       3.16567439       3.89097056
Si      -1.07446702       1.61789265       8.65073260
Si       3.86581613       3.06418327       0.52886183
Si      -1.07583079       4.99742125       0.29319177
18
Lattice="6.618518276170098 1.0893479126823409 -0.26018920582222094 -0.7107829250683271 5.50490558779165 -0.608866742685201 -3.0981884999731393 -3.4177808513984487 10.220855773187056" Properties=species:S:1:pos:R:3 unique_starting_index=108 config_type=initial n_minim_iter=10 stress="-0.006376503112769746 -0.0006119352715200383 -0.004412177816309196 -0.0006119352715200383 -0.002871775338463678 -0.0035484520808631704 -0.004412177816309196 -0.0035484520808631704 -0.006285420151760622" pbc="T T T"
Si       3.94584884      -1.17913407       9.27997006
Si       0.95993048       1.18828592       7.36251131
Si      -1.67314401       3.01084044       4.97530131
Si       3.73829990       4.01144060       2.67733461
Si       3.89492015       0.25672695       5.42689084
Si       3.21524107       6.28252801       0.14419318
Si       1.59658312       3.23503324      -0.06316702
Si       1.82587220      -0.64824303       6.03678855
Si       2.65671807       2.33712888       3.92470253
Si       5.36526014       4.02370705      -1.01937447
Si       0.50877690       4.34523813       1.79573008
Si       2.94676000       0.35053384       2.85298900
Si       4.17985607       2.44729518       6.22886783
Si       2.06268347       3.24585949       6.87972211
Si       0.43982430       3.25385500       3.90500655
Si      -1.14792717       1.61699649       8.60903678
Si       3.85361600       3.06569355       0.51162230
Si      -1.08973098       5.02895193       0.29086220
18
Lattice="6.661145657120528 1.1382755995165739 -0.22191219804312454 -0.6779217232063411 5.4929643352385185 -0.595013179531042 -3.087146380158258 -3.405052138599159 10.18764986790201" Properties=species:S:1:pos:R:3 unique_starting_index=108 config_type=initial n_minim_iter=11 stress="-0.004265780050407439 0.002145572675048112 -0.001976024679682672 0.002145572675048112 -0.00263235340518661 -0.0021425775778180388 -0.001976024679682672 -0.0021425775778180388 -0.005460742575160564" pbc="T T T"
Si       4.00043793      -1.11504494       9.28888559
Si       1.01115423       1.21840070       7.37065938
Si      -1.63894809       3.00965305       4.96143948
Si       3.79359458       4.03926031       2.70923783
Si       3.95802206       0.30756467       5.45232739
Si       3.27428845       6.30969607       0.17187622
Si       1.63337907       3.24450215      -0.03654456
Si       1.87587487      -0.59601183       6.05112938
Si       2.69435341       2.36782786       3.94169572
Si       5.41999503       4.05505080      -0.97413735
Si       0.56073364       4.34378123       1.80205956
Si       2.98796652       0.35033186       2.84401916
Si       4.24033287       2.49517564       6.25954943
Si       2.13125812       3.28218730       6.90339884
Si       0.48686864       3.30067834       3.92818994
Si      -1.09873427       1.62766073       8.59443864
Si       3.90549818       3.08814090       0.55090957
Si      -1.06129206       5.02178650       0.29591283
18
Lattice="6.698582118173145 1.1413070983325952 -0.19426463799909957 -0.6820497488242795 5.494801476849438 -0.5659340557838131 -3.0706465300547436 -3.3405592395939414 10.237997533421712" Properties=species:S:1:pos:R:3 unique_starting_index=108 config_type=initial n_minim_iter=12 stress="0.0012727178701225108 -0.0001608890272240783 0.0004220404465614012 -0.0001608890272240783 0.00026007269738756347 3.427599221367643e-05 0.0004220404465614012 3.427599221367643e-05 0.0017799153190895995" pbc="T T T"
Si       4.04039992      -1.04533185       9.36377486
Si       1.04432094       1.27112798       7.45502963
Si      -1.63866496       3.03753884       4.99993820
Si       3.81172456       4.04318311       2.77691544
Si       4.02447901       0.35682646       5.53432850
Si       3.28779254       6.32290214       0.20077654
Si       1.66002892       3.24117921      -0.00124653
Si       1.93926287      -0.51745202       6.12094108
Si       2.69639818       2.37025723       3.97604343
Si       5.45317994       4.05480532      -0.92595881
Si       0.58008786       4.35107438       1.82786721
Si       3.02242690       0.33223507       2.84046856
Si       4.26533751       2.54381108       6.34745652
Si       2.15989853       3.33353157       7.00327700
Si       0.50575252       3.40689317       4.01731888
Si      -1.07779193       1.67408947       8.65522010
Si       3.94552005       3.09359486       0.60639138
Si      -1.07176486       5.03270883       0.31829836
18
Lattice="6.733367924307616 1.135127580129246 -0.1563382748425874 -0.6943155382703575 5.495920090010253 -0.5380579319701565 -3.035176673063005 -3.2814063700700693 10.19900336830368" Properties=species:S:1:pos:R:3 unique_starting_index=108 config_type=initial n_minim_iter=13 stress="0.003101359799558834 -0.0014663603815029472 0.0028523664468128192 -0.0014663603815029472 0.003217361107483655 0.0032645706668159974 0.0028523664468128192 0.0032645706668159974 0.0018451833872245367" pbc="T T T"
Si       4.11790404      -0.98673754       9.37460313
Si       1.07738687       1.32486852       7.46697543
Si      -1.63446101       3.05971443       4.96274808
Si       3.84382989       4.02798791       2.81096225
Si       4.08852330       0.39802641       5.55479006
Si       3.30034050       6.32734116       0.21819569
Si       1.68126642       3.24210249       0.03918291
Si       2.01047818      -0.44999810       6.15776148
Si       2.68363514       2.37942106       4.03023077
Si       5.45057788       4.03971790      -0.87072039
Si       0.59044507       4.34212646       1.84259575
Si       3.06886292       0.33397200       2.83026781
Si       4.31432450       2.58131202       6.38303830
Si       2.20680959       3.38820344       7.05173664
Si       0.51605952       3.46241057       4.03837846
Si      -1.03868404       1.70464599       8.63334679
Si       3.95806954       3.09409699       0.65236205
Si      -1.08410012       5.04042105       0.34325582
18
Lattice="6.7392538867015785 1.1637275705861556 -0.1680080277500169 -0.6670920429854507 5.474793125657964 -0.5236120153491672 -3.0725205850598387 -3.259003067030998 10.223210009261496" Properties=species:S:1:pos:R:3 unique_starting_index=108 config_type=initial n_minim_iter=14 stress="0.0013676593653356125 -0.00014405300319791096 -3.967162163994177e-05 -0.00014405300319791096 0.0022523905902088826 0.000663945315608593 -3.967162163994177e-05 0.000663945315608593 0.001393893992267032" pbc="T T T"
Si       4.08997664      -0.92572316       9.38659099
Si       1.06848932       1.35338355       7.50532831
Si      -1.64288821       3.04150015       4.95605071
Si       3.84858299       3.99493690       2.82586977
Si       4.11270127       0.45263137       5.58412207
Si       3.32816685       6.31311086       0.18086447
Si       1.72157718       3.22466643       0.04634976
Si       2.03526263      -0.38316761       6.19647778
Si       2.63447073       2.33853138       4.02945890
Si       5.45820161       4.05429224      -0.85781202
Si       0.60504980       4.32446865       1.83951300
Si       3.06762964       0.35127773       2.79897798
Si       4.30542323       2.62645970       6.40236052
Si       2.20695108       3.41904348       7.10214390
Si       0.52297541       3.54183199       4.08806246
Si      -1.05037518       1.69437766       8.63810374
Si       3.97666657       3.11056899       0.66868573
Si      -1.06409653       5.01610983       0.35441514
18
Lattice="6.727599685170365 1.1628275422069747 -0.17035134084139314 -0.663419560787775 5.453450737796202 -0.531104988599854 -3.0700025069854786 -3.2613305456048014 10.223359214630241" Properties=species:S:1:pos:R:3 unique_starting_index=108 config_type=initial n_minim_iter=15 stress="-0.001283542423126356 0.0001118712125419102 -0.0008734897149653074 0.0001118712125419102 -0.0008302300319658765 -0.0006003946231744902 -0.0008734897149653074 -0.0006003946231744902 -0.0007204804317399313" pbc="T T T"
Si       4.08965167      -0.92806353       9.38903877
Si       1.06620293       1.34351745       7.50018839
Si      -1.63809579       3.02122719       4.94249302
Si       3.84238489       3.96253017       2.81834260
Si       4.10711450       0.45242758       5.57566330
Si       3.32825312       6.28176433       0.16093584
Si       1.72123015       3.20762869       0.03594556
Si       2.02986920      -0.39456205       6.19410138
Si       2.61737605       2.31363195       4.03478387
Si       5.43907128       4.04465974      -0.86219382
Si       0.60221467       4.30787977       1.83797402
Si       3.05680124       0.36806897       2.80206069
Si       4.31038478       2.62098774       6.39426966
Si       2.21125271       3.40500670       7.10087575
Si       0.52099912       3.51460661       4.07717354
Si      -1.04818394       1.67114457       8.62876100
Si       3.96239846       3.10082729       0.65866780
Si      -1.05576412       4.99106789       0.35011639
18
Lattice="6.754199114953351 1.1958232328707923 -0.1370436169052727 -0.6395195199657453 5.4297120365878975 -0.521324795360028 -3.0518963918116393 -3.242471457918383 10.192410542089242" Properties=species:S:1:pos:R:3 unique_starting_index=108 config_type=initial n_minim_iter=16 stress="-0.0010728914855963963 0.00046354597765841906 0.0001126937051718343 0.00046354597765841906 -0.002796899535773155 -0.0013757031233856904 0.0001126937051718343 -0.0013757031233856904 -0.0018332928350420954" pbc="T T T"
Si       4.14866830      -0.86235335       9.40988047
Si       1.11867184       1.37922433       7.51135249
Si      -1.60232702       3.01090588       4.91353941
Si       3.85749472       3.92793672       2.84923325
Si       4.16792332       0.51081103       5.59307390
Si       3.37130718       6.25939405       0.15095901
Si       1.75167434       3.18582284       0.04197628
Si       2.08310352      -0.36287515       6.19687208
Si       2.60804240       2.27937975       4.05096919
Si       5.45747846       4.06650760      -0.81491897
Si       0.63725821       4.30488450       1.84991784
Si       3.07279118       0.39889684       2.79353659
Si       4.38364005       2.68530592       6.42103227
Si       2.28125237       3.43672443       7.13851825
Si       0.55514824       3.55775883       4.10833904
Si      -1.00816520       1.66133592       8.60198559
Si       3.98636117       3.11072473       0.68323395
Si      -1.02381810       4.96215253       0.35618323
18
Lattice="6.779791583785958 1.2058213583250823 -0.12400526461339173 -0.6355289523350243 5.428675546231251 -0.5157943955816857 -3.0501103776767478 -3.234003904140976 10.187458379007996" Properties=species:S:1:pos:R:3 unique_starting_index=108 config_type=initial n_minim_iter=17 stress="-0.0002955274213137434 -0.0004917688414310549 -0.00026569007885082367 -0.0004917688414310549 -0.0010898304915606788 0.0006233561750423374 -0.00026569007885082367 0.0006233561750423374 0.0010917262574023337" pbc="T T T"
Si       4.19776356      -0.83020045       9.44310908
Si       1.15145506       1.41052941       7.51074876
Si      -1.58200802       3.02765699       4.88900430
Si       3.83713221       3.90775184       2.87048282
Si       4.18941631       0.54356549       5.58038122
Si       3.39236918       6.25797069       0.14950831
Si       1.74878707       3.18068430       0.04548533
Si       2.10444946      -0.36986215       6.18658550
Si       2.59499001       2.28542360       4.09915743
Si       5.46670748       4.07521672      -0.79869853
Si       0.66515318       4.31938006       1.87343730
Si       3.08341830       0.39111058       2.78255769
Si       4.44702606       2.73163401       6.44739021
Si       2.33448454       3.46417517       7.16887479
Si       0.56050025       3.55732895       4.11878670
Si      -0.99583297       1.65933333       8.59625490
Si       3.98333325       3.09646765       0.68356145
Si      -1.00702931       4.96308941       0.36822171
18
Lattice="6.794582858073579 1.224392465397495 -0.11403637223846821 -0.6253389849602777 5.444193100133032 -0.5130169983395109 -3.0503179416480566 -3.2482060236264076 10.155401113133253" Properties=species:S:1:pos:R:3 unique_starting_index=108 config_type=initial n_minim_iter=18 stress="0.0006249703697331116 -0.0001014001047079762 0.00024721874168015154 -0.0001014001047079762 0.0007526013909021855 0.00021426318194569594 0.00024721874168015154 0.00021426318194569594 0.00018457910056511874" pbc="T T T"
Si       4.20770865      -0.82070008       9.42382172
Si       1.17353038       1.41906436       7.49399377
Si      -1.57546029       3.03742368       4.87238890
Si       3.84027333       3.92376835       2.87742456
Si       4.20802363       0.56257704       5.57650847
Si       3.41030347       6.28419881       0.15296807
Si       1.75907634       3.19252462       0.05048479
Si       2.12637468      -0.35529266       6.17320477
Si       2.60412779       2.28766811       4.08158733
Si       5.49253017       4.10037696      -0.78313640
Si       0.68218970       4.33544018       1.86701843
Si       3.09217807       0.38094664       2.76512939
Si       4.46677305       2.75404752       6.44178419
Si       2.35505053       3.48064161       7.15645096
Si       0.57562367       3.59274733       4.12164221
Si      -0.98461750       1.66289118       8.57041171
Si       4.00291662       3.11000387       0.69277809
Si      -0.99856134       4.97884069       0.36670024
18
Lattice="6.80969307029556 1.2508735242551041 -0.10897235201566101 -0.6078089644042195 5.456057569482075 -0.511839126567022 -3.0611593379414406 -3.2680368743613344 10.130015932115871" Properties=species:S:1:pos:R:3 unique_starting_index=108 config_type=initial n_minim_iter=19 stress="-0.0003790467731813535 0.0008138120981544392 0.00043395110197507245 0.0008138120981544392 0.001137821738957964 -0.0002236308118365404 0.00043395110197507245 -0.0002236308118365404 -0.0005183228336555856" pbc="T T T"
Si       4.20274589      -0.81161321       9.41224990
Si       1.21148803       1.42672356       7.46780649
Si      -1.57709261       3.05606727       4.84975435
Si       3.81530581       3.93689605       2.89744033
Si       4.20870118       0.60240038       5.56384925
Si       3.44010005       6.30464156       0.15487405
Si       1.76510955       3.20819667       0.05448976
Si       2.15974859      -0.33094867       6.15857775
Si       2.61103883       2.27332156       4.05908874
Si       5.53419920       4.12849316      -0.76662603
Si       0.70173629       4.35095847       1.85868671
Si       3.09515762       0.35748907       2.73995433
Si       4.49996007       2.78372218       6.43916947
Si       2.38272415       3.49684985       7.13894670
Si       0.58815307       3.62199866       4.12067040
Si      -0.97005997       1.66523454       8.55011397
Si       4.02050481       3.11680390       0.69763877
Si      -0.98337734       4.99439320       0.37354727
18
Lattice="6.83746183284473 1.2463431070754958 -0.10609512826910003 -0.6140907561284599 5.447716977684435 -0.5121956528458798 -3.0682478401872237 -3.262067032243674 10.121707339800983" Properties=species:S:1:pos:R:3 unique_starting_index=108 config_type=initial n_minim_iter=20 stress="0.0012320965347113386 0.00022856477367627442 -7.206470795065858e-05 0.00022856477367627442 0.001554621998756974 -0.00015153744987378128 -7.206470795065858e-05 -0.00015153744987378128 -0.0009919288742533015" pbc="T T T"
Si       4.22876433      -0.81259164       9.42659836
Si       1.24609386       1.43111251       7.45106170
Si      -1.60255488       3.07218965       4.81857026
Si       3.78743636       3.89127527       2.91813684
Si       4.21854097       0.64689781       5.54249535
Si       3.46365505       6.27141398       0.13970476
Si       1.76493554       3.19955666       0.04774014
Si       2.19569732      -0.32507450       6.15727668
Si       2.58861582       2.21586023       4.07042064
Si       5.54655312       4.11972471      -0.75014294
Si       0.69304079       4.34716430       1.86313190
Si       3.09461269       0.36502074       2.73114344
Si       4.56420502       2.80740235       6.44085584
Si       2.42341884       3.50965060       7.14043381
Si       0.58297981       3.60186752       4.10788860
Si      -0.95325584       1.66021415       8.54030778
Si       4.01597069       3.09999381       0.69521968
Si      -0.98687027       4.98648104       0.39106512
18
Lattice="6.816795625491516 1.2141915563048702 -0.11889045309967586 -0.6330295926178638 5.422362693061232 -0.5175585741081998 -3.063020354809109 -3.2366576221804317 10.188081334991372" Properties=species:S:1:pos:R:3 unique_starting_index=108 config_type=initial n_minim_iter=21 stress="-0.0013750004774341561 -0.0006127000489641998 -0.0002784099900664792 -0.0006127000489641998 -0.0023324002998566067 -0.00025986054946139684 -0.0002784099900664792 -0.00025986054946139684 0.0007779210798120858" pbc="T T T"
Si       4.20334947      -0.83807587       9.48319278
Si       1.24560013       1.41623530       7.48261223
Si      -1.63813948       3.08761198       4.84409088
Si       3.74082117       3.85374411       2.93295597
Si       4.18048489       0.65745393       5.54741817
Si       3.44344988       6.21749322       0.14232520
Si       1.74141508       3.18568935       0.04005896
Si       2.18749466      -0.33941052       6.18489515
Si       2.56787391       2.16669038       4.09298656
Si       5.52009980       4.07285530      -0.75890010
Si       0.65616830       4.31781564       1.87058120
Si       3.07470568       0.35427013       2.74740815
Si       4.56079827       2.78567448       6.46810698
Si       2.41278772       3.48526331       7.16044770
Si       0.55883092       3.54881889       4.11278841
Si      -0.94178064       1.66404180       8.59942991
Si       3.98273767       3.06722353       0.69369443
Si      -1.01020056       4.96482554       0.40950988
