18
Lattice="5.798837201742755 1.178801939702898 -0.07991981396425678 4.033336403568505 10.100748767308092 -1.357150314364576 2.106058609589487 -0.16766368206000554 7.242286822153298" Properties=species:S:1:pos:R:3 unique_starting_index=194 config_type=initial n_minim_iter=1 energy=-2929.5248651590587 free_energy=-2929.5248651590587 pbc="T T T"
Si       5.66692652       1.69429537       0.80659791
Si       7.43747447       5.83659832       6.90849075
Si       5.21055218       4.00364711       1.28254787
Si       2.79394383       1.06325461       5.86976585
Si       7.32931047       9.10705008       3.53025572
Si       7.38680744      11.34717466       1.09681220
Si       4.05367389       2.30118908      -0.90551004
Si       2.92180508       2.82329134       4.23950967
Si       4.98143220       7.47426574       1.47827741
Si       5.65829884       9.69105926       0.92412103
Si       2.04829867       1.93545723       0.55971583
Si       6.74484918       5.29160766       4.61131186
Si       7.30367870       5.42447876       0.98675317
Si       3.44293484       4.52109238      -0.36322337
Si       6.77763865       6.90665992       2.88590031
Si       9.01654605       9.95525688       2.21847773
Si       6.20036001       1.84452301       3.97510783
Si       5.01287917       3.90275962       3.64705562
18
Lattice="5.797682940986239 1.1858691857742942 -0.07558798526976165 4.039758363777073 10.120842313443779 -1.3561968526247319 2.110656756941987 -0.165643098201064 7.258419136124474" Properties=species:S:1:pos:R:3 unique_starting_index=194 config_type=initial n_minim_iter=2 stress="0.001173505405751523 -2.3850246543981903e-05 -7.592383463517852e-06 -2.3850246543981903e-05 0.001400824964292327 3.713761599396339e-05 -7.592383463517852e-06 3.713761599396339e-05 0.0011689979084212843" pbc="T T T"
Si       5.66667121       1.70218196       0.81255918
Si       7.44524666       5.85264345       6.92764209
Si       5.21341101       4.01475050       1.29001151
Si       2.79786448       1.06767303       5.88381227
Si       7.33738120       9.12883016       3.54391681
Si       7.39519406      11.37229095       1.10516922
Si       4.05425839       2.30799301      -0.90404247
Si       2.92626988       2.83139154       4.25044275
Si       4.98754201       7.49138665       1.48503338
Si       5.66544672       9.71308182       0.93135722
Si       2.05010338       1.94055085       0.56156900
Si       6.75061874       5.30686609       4.62614372
Si       7.30646654       5.44049324       0.99414823
Si       3.44532687       4.53115985      -0.36081098
Si       6.78338912       6.92452288       2.89773866
Si       9.02338383       9.97997522       2.23058244
Si       6.20236734       1.85271415       3.98780966
Si       5.01720762       3.91265277       3.65861532
18
Lattice="5.780631849002164 1.1942669798493544 -0.06815555258112271 4.04040309664874 10.123027136153317 -1.3518189090331292 2.1129207386618463 -0.16223042798779125 7.266453670873885" Properties=species:S:1:pos:R:3 unique_starting_index=194 config_type=initial n_minim_iter=3 stress="-0.001533895245742328 0.000866437342358754 0.0005628947829320301 0.000866437342358754 -0.00016813222057919877 6.110024215530086e-05 0.0005628947829320301 6.110024215530086e-05 0.000386139774520101" pbc="T T T"
Si       5.65123889       1.71046078       0.82031184
Si       7.43911648       5.86031029       6.94055660
Si       5.20504196       4.02068608       1.29958457
Si       2.79681118       1.07129479       5.89195855
Si       7.33215114       9.13680523       3.55723202
Si       7.39057814      11.37882433       1.11528108
Si       4.04545812       2.31202495      -0.89937084
Si       2.92615388       2.83626966       4.25743034
Si       4.98546621       7.49701902       1.49134000
Si       5.66303513       9.72072501       0.94085972
Si       2.04823242       1.94310430       0.56210097
Si       6.74279259       5.31605290       4.63856547
Si       7.29212560       5.45098563       1.00310666
Si       3.44068905       4.53349485      -0.35590674
Si       6.77551495       6.93313806       2.91000320
Si       9.01136758       9.99069827       2.24452749
Si       6.18915967       1.85989399       3.99851595
Si       5.01163915       3.91569401       3.66826708
18
Lattice="5.789795584576971 1.178115781240032 -0.07012157032052306 4.020847447831931 10.113989315135647 -1.3586161626612254 2.1164252307860036 -0.1733363430453965 7.259714864209607" Properties=species:S:1:pos:R:3 unique_starting_index=194 config_type=initial n_minim_iter=4 stress="-0.0009970833473527756 -0.0013639585620214738 0.0007842652883114428 -0.0013639585620214738 0.000536860634776406 0.00012812086484809007 0.0007842652883114428 0.00012812086484809007 -0.0001652801696292777" pbc="T T T"
Si       5.65329605       1.69567233       0.81659286
Si       7.43702038       5.82422166       6.91502565
Si       5.20975660       4.00243738       1.30916337
Si       2.79069241       1.05787682       5.88669782
Si       7.32048075       9.11578557       3.55507993
Si       7.37737375      11.35736511       1.10118440
Si       4.06213104       2.29214713      -0.90219761
Si       2.92097080       2.83397193       4.25119798
Si       4.98167908       7.48953064       1.47220516
Si       5.64785915       9.72518683       0.94156275
Si       2.05489619       1.93777264       0.54078038
Si       6.73800197       5.30205691       4.63103961
Si       7.29033125       5.44105208       0.98807331
Si       3.43711025       4.51619552      -0.35492666
Si       6.76814498       6.92000782       2.91120625
Si       8.99485873       9.97235072       2.23821449
Si       6.18804554       1.82604451       3.99211362
Si       5.01143912       3.87755837       3.66437254
18
Lattice="5.807632257634975 1.191041952641528 -0.08132415500848382 4.059006414335038 10.110152646309723 -1.3705524024046274 2.108019178968178 -0.17105127226176128 7.255746160810661" Properties=species:S:1:pos:R:3 unique_starting_index=194 config_type=initial n_minim_iter=5 stress="0.00031845452434500337 0.0003389007347529405 -0.00010151400954785092 0.0003389007347529405 -0.0002281258328466885 -4.027384792309996e-05 -0.00010151400954785092 -4.027384792309996e-05 -0.0002404209792607845" pbc="T T T"
Si       5.66950551       1.70720247       0.80583379
Si       7.45799978       5.82926521       6.89600167
Si       5.23199044       4.00858679       1.30091803
Si       2.78807444       1.06091094       5.88079846
Si       7.35522062       9.11977369       3.53974509
Si       7.42345078      11.35943260       1.08143016
Si       4.08295012       2.29745800      -0.91136829
Si       2.92665948       2.83674759       4.24446008
Si       5.01224957       7.49265438       1.45664541
Si       5.68472706       9.72915661       0.92877795
Si       2.06604960       1.94033056       0.53167796
Si       6.75872961       5.31064184       4.61613847
Si       7.32001931       5.45345656       0.97015112
Si       3.45873126       4.51570097      -0.36199790
Si       6.79649481       6.92760394       2.89731798
Si       9.03701493       9.98024145       2.21787270
Si       6.19887758       1.83439731       3.98042143
Si       5.02806477       3.87815654       3.65471270
18
Lattice="5.798322264435254 1.1858636482386073 -0.10351250516826953 4.050261633757096 10.10071596577335 -1.3967208360363068 2.07845903637019 -0.17599711676041482 7.283135464350173" Properties=species:S:1:pos:R:3 unique_starting_index=194 config_type=initial n_minim_iter=6 stress="-0.000609783184811831 -0.0003993730809429688 -0.0015347333213616946 -0.0003993730809429688 -0.00010458640990496202 0.0008095479710856503 -0.0015347333213616946 0.0008095479710856503 0.0021209703379838807" pbc="T T T"
Si       5.65796870       1.69794171       0.79493697
Si       7.41608805       5.81057134       6.89751413
Si       5.22430788       4.00313264       1.29696010
Si       2.75775709       1.06437476       5.89526864
Si       7.32890413       9.10900356       3.53360001
Si       7.40059198      11.35372385       1.04673833
Si       4.08836750       2.28366198      -0.93968096
Si       2.89786175       2.83103162       4.25126196
Si       5.00147623       7.49912908       1.42545194
Si       5.66282865       9.72960388       0.91587297
Si       2.07072161       1.94044753       0.50608332
Si       6.71588639       5.29935171       4.60592581
Si       7.29557255       5.45102202       0.93675499
Si       3.45945319       4.49448652      -0.36899981
Si       6.76085102       6.92535672       2.88327438
Si       8.99929507       9.95141802       2.19275636
Si       6.16384388       1.81624642       3.98807807
Si       5.01251295       3.85828302       3.66759856
18
Lattice="5.814748923177146 1.193937675339096 -0.09202005504399352 4.067958408498983 10.124306474453451 -1.4190147387981182 2.103312770115089 -0.20031279298133442 7.270447553196586" Properties=species:S:1:pos:R:3 unique_starting_index=194 config_type=initial n_minim_iter=7 stress="0.0004682686273376149 6.209480785126787e-06 1.6534576601671938e-05 6.209480785126787e-06 0.0007875605927031045 -0.0008334043734746355 1.6534576601671938e-05 -0.0008334043734746355 0.0005845350582615271" pbc="T T T"
Si       5.67821688       1.70063568       0.80823281
Si       7.45839648       5.79749003       6.87676592
Si       5.25402235       4.01097086       1.30422304
Si       2.77899277       1.05634439       5.88028074
Si       7.37202026       9.11973962       3.51852421
Si       7.43580708      11.38207234       1.01560526
Si       4.10817477       2.28522209      -0.94175621
Si       2.91367446       2.82314516       4.23522052
Si       5.03294568       7.52537931       1.39189135
Si       5.68784384       9.75678017       0.90124279
Si       2.09032417       1.94691835       0.48508605
Si       6.74138135       5.29789238       4.58744421
Si       7.31830756       5.46958026       0.92633076
Si       3.47959888       4.49085994      -0.36554465
Si       6.78485012       6.93950169       2.86831113
Si       9.03176847       9.95255821       2.17577806
Si       6.18444878       1.80032449       3.99891309
Si       5.04656883       3.84553424       3.67138488
18
Lattice="5.823000649969133 1.1962364707315396 -0.08272261529755756 4.0776840306196735 10.116333001676255 -1.3800427677824358 2.112610286221027 -0.17511435115319163 7.261574075003528" Properties=species:S:1:pos:R:3 unique_starting_index=194 config_type=initial n_minim_iter=8 stress="0.00017814278195361072 0.00020311064217479988 8.145944890557538e-05 0.00020311064217479988 0.0006712316552407967 0.0010389789911107756 8.145944890557538e-05 0.0010389789911107756 -0.0006238662331281969" pbc="T T T"
Si       5.68768347       1.70550703       0.82000931
Si       7.47531391       5.81991961       6.89168683
Si       5.26852767       4.01620622       1.32621531
Si       2.78870358       1.08113495       5.87693566
Si       7.39139163       9.13085857       3.55404085
Si       7.45340270      11.38556501       1.05497763
Si       4.11803498       2.27840267      -0.93030897
Si       2.92073648       2.83813859       4.23908430
Si       5.04732722       7.53558481       1.41334628
Si       5.70114046       9.76165001       0.94083093
Si       2.09922336       1.95014712       0.48613067
Si       6.75490280       5.31618141       4.60231332
Si       7.33037695       5.47555750       0.94677262
Si       3.48955895       4.48341384      -0.34188894
Si       6.79561413       6.95076238       2.89250814
Si       9.04826300       9.95380759       2.21133211
Si       6.19342736       1.80966726       4.00841572
Si       5.05885723       3.85470760       3.68917074
18
Lattice="5.829850318131021 1.1896608221233762 -0.07943337357554398 4.078182484270473 10.076731302727337 -1.3867514158103584 2.120639800674842 -0.1800741649649813 7.278657159612044" Properties=species:S:1:pos:R:3 unique_starting_index=194 config_type=initial n_minim_iter=9 stress="8.720517003252048e-05 -0.00028127011696828436 0.0007621666351918497 -0.00028127011696828436 -0.002213684978142781 0.0005862658130777934 0.0007621666351918497 0.0005862658130777934 0.00019011545271294556" pbc="T T T"
Si       5.69519168       1.69777140       0.82757686
Si       7.48273386       5.78982459       6.90605025
Si       5.28150018       3.99779545       1.33907032
Si       2.79823507       1.07838353       5.88964437
Si       7.40078540       9.09005487       3.56721739
Si       7.46014342      11.34066651       1.05027111
Si       4.12736464       2.26152620      -0.93026447
Si       2.92350522       2.82569875       4.24337964
Si       5.05459035       7.51308632       1.40727899
Si       5.70600209       9.72715867       0.94558611
Si       2.10780664       1.94387417       0.47898558
Si       6.76276275       5.29413592       4.61061560
Si       7.33648402       5.45269580       0.94691228
Si       3.49712596       4.45736371      -0.33458467
Si       6.79618254       6.92188093       2.89613613
Si       9.05463958       9.90369996       2.20974286
Si       6.19759223       1.78670163       4.02414112
Si       5.06433132       3.83190721       3.70650042
18
Lattice="5.8222655891298105 1.194622468749089 -0.10445834018006009 4.084622376666906 10.086916551490509 -1.4385151141166879 2.091586182833789 -0.2059119358077247 7.267507774956921" Properties=species:S:1:pos:R:3 unique_starting_index=194 config_type=initial n_minim_iter=10 stress="-0.0022551277870365804 -0.0003685837346328354 -0.0003595107628434805 -0.0003685837346328354 -0.002693185465230427 -3.846262760983719e-06 -0.0003595107628434805 -3.846262760983719e-06 -0.002241956715552239" pbc="T T T"
Si       5.68675649       1.70386344       0.80835982
Si       7.43588963       5.77135718       6.84871590
Si       5.29222956       3.99737607       1.33158330
Si       2.78288606       1.07831402       5.87006965
Si       7.38588584       9.08113132       3.52317569
Si       7.45596880      11.35064100       0.96602363
Si       4.14297191       2.24571061      -0.94945329
Si       2.89756925       2.82048121       4.20298554
Si       5.05463244       7.53897047       1.33883147
Si       5.70371089       9.74718253       0.90212897
Si       2.12277359       1.95014438       0.44086895
Si       6.73611468       5.29529090       4.55596697
Si       7.32042538       5.45930088       0.88978982
Si       3.51152487       4.44042783      -0.33683328
Si       6.75675028       6.92313421       2.83288518
Si       9.03165389       9.88322566       2.11686314
Si       6.15757853       1.74234247       4.00421753
Si       5.03760791       3.81462221       3.69666790
18
Lattice="5.843753923544257 1.2076987227446006 -0.10788448796011875 4.1194126203354156 10.103164100187097 -1.4698444443883296 2.0980073721748798 -0.2200441206550826 7.296615085351024" Properties=species:S:1:pos:R:3 unique_starting_index=194 config_type=initial n_minim_iter=11 stress="0.0011557706272532463 0.00027625567402993456 0.00030259738474642454 0.00027625567402993456 0.0006976165881815362 0.0001583085365641365 0.00030259738474642454 0.0001583085365641365 0.0010969504017571434" pbc="T T T"
Si       5.71441293       1.71937578       0.81557959
Si       7.45425662       5.77591815       6.85556833
Si       5.34039807       4.00743525       1.35833195
Si       2.80857710       1.09277850       5.88677158
Si       7.43461548       9.08846096       3.53019495
Si       7.50706620      11.37278608       0.92608855
Si       4.17920072       2.23348079      -0.95340274
Si       2.90333368       2.82462584       4.19196049
Si       5.09059219       7.57316934       1.30226837
Si       5.74617623       9.77647190       0.89371203
Si       2.15212497       1.96016251       0.41784952
Si       6.76785490       5.31475543       4.55151145
Si       7.34834059       5.47647678       0.86975199
Si       3.54762268       4.42908062      -0.31765022
Si       6.76843658       6.93568091       2.81303961
Si       9.06543080       9.87673798       2.07335022
Si       6.16114501       1.71429051       4.02764306
Si       5.05294888       3.81239010       3.72839833
18
Lattice="5.827591548242917 1.2105310053320837 -0.16921476526157309 4.11659728665258 10.144354228784026 -1.6503371256860986 2.036756913068491 -0.32333143421758725 7.318493429788124" Properties=species:S:1:pos:R:3 unique_starting_index=194 config_type=initial n_minim_iter=12 stress="0.00196364146475248 0.0002425766728081291 -0.0013296331212708347 0.0002425766728081291 0.004326210455079331 -0.0005948089455142735 -0.0013296331212708347 -0.0005948089455142735 -0.0001736625984414298" pbc="T T T"
Si       5.71704302       1.71321035       0.76371374
Si       7.35310120       5.69680956       6.72229627
Si       5.34881120       3.99800055       1.34448250
Si       2.78904542       1.05435527       5.86389358
Si       7.41073211       9.05355200       3.37151859
Si       7.48531652      11.37736590       0.68988447
Si       4.22127720       2.20824011      -1.01162519
Si       2.84229473       2.78265126       4.11304825
Si       5.05604463       7.58979227       1.11893813
Si       5.72258877       9.81261446       0.73289047
Si       2.17101373       1.96113463       0.34894879
Si       6.71643093       5.29296326       4.43457181
Si       7.29211607       5.48338539       0.71971418
Si       3.55990413       4.40944051      -0.33777969
Si       6.69478471       6.90827972       2.66523891
Si       8.94788359       9.83287880       1.83519525
Si       6.06618651       1.63378697       3.99851969
Si       5.01283170       3.75281556       3.70234324
18
Lattice="5.8019514934433465 1.2003034719371968 -0.18674700410885064 4.0942351495519 10.092160450357603 -1.7538620350694074 2.019479506798627 -0.3862833047501928 7.3793234174956615" Properties=species:S:1:pos:R:3 unique_starting_index=194 config_type=initial n_minim_iter=13 stress="0.000601777945581434 0.0001738915120945161 -0.00012660183341601445 0.0001738915120945161 0.0001842376012733531 -0.00022263650713863956 -0.00012660183341601445 -0.00022263650713863956 4.4224917093994945e-05" pbc="T T T"
Si       5.71642841       1.69473694       0.75795421
Si       7.28402355       5.60425861       6.69227349
Si       5.34966259       3.95619431       1.38770038
Si       2.79920552       1.03553782       5.88057365
Si       7.39043798       8.95928058       3.32245749
Si       7.45195309      11.29280388       0.56655364
Si       4.24555891       2.16580722      -1.03442626
Si       2.80822524       2.73513014       4.08816475
Si       5.01484855       7.55204717       1.02401035
Si       5.68529688       9.75441898       0.66918811
Si       2.18769770       1.94774508       0.31410662
Si       6.68364873       5.24930360       4.40407657
Si       7.23059296       5.44435420       0.65305375
Si       3.56390783       4.35132646      -0.31047506
Si       6.62951078       6.83331185       2.60897694
Si       8.84159763       9.71816213       1.71620386
Si       5.99574739       1.56077511       4.02978835
Si       4.98657748       3.68563409       3.74185502
18
Lattice="5.745965744893421 1.1786849739215706 -0.2012724939341139 4.030744663352931 10.037447457872863 -1.8565608875908082 1.9963110788179805 -0.4539248541644874 7.446846880263863" Properties=species:S:1:pos:R:3 unique_starting_index=194 config_type=initial n_minim_iter=14 stress="-0.002616483238572349 -0.0005267975894536586 0.0017523256408341192 -0.0005267975894536586 -0.005178894183406543 0.0004883550956660149 0.0017523256408341192 0.0004883550956660149 -6.140340767074777e-05" pbc="T T T"
Si       5.69183797       1.66413550       0.74811580
Si       7.17560896       5.50154219       6.66173624
Si       5.30128474       3.89866156       1.43282868
Si       2.79254088       1.00692438       5.89023769
Si       7.31525841       8.85590131       3.26766045
Si       7.35728713      11.19829122       0.44698344
Si       4.24120719       2.13202606      -1.05826262
Si       2.76539141       2.67588244       4.07755845
Si       4.92006217       7.49649572       0.95188370
Si       5.58816843       9.66476545       0.61197491
Si       2.18355295       1.92677035       0.30077916
Si       6.61574722       5.19718080       4.37756535
Si       7.12107929       5.39119817       0.59466937
Si       3.54209773       4.29617444      -0.27503492
Si       6.52971422       6.74245989       2.56086440
Si       8.68355190       9.60227352       1.60373830
Si       5.90771079       1.49397938       4.05939533
Si       4.93548369       3.62126516       3.77994844
18
Lattice="5.71262561561089 1.1721194610714183 -0.2387332537597865 4.000798249169644 10.049691523402181 -1.9725819464459047 1.9517491746319453 -0.5211828673034217 7.480955210052501" Properties=species:S:1:pos:R:3 unique_starting_index=194 config_type=initial n_minim_iter=15 stress="-0.0019085478466215832 -5.4753914075494863e-05 0.0004776727547663553 -5.4753914075494863e-05 -0.004652171523589318 0.00016487833553573592 0.0004776727547663553 0.00016487833553573592 0.0001342949170609132" pbc="T T T"
Si       5.68101453       1.65104730       0.70978019
Si       7.07870071       5.43770278       6.57956909
Si       5.26300707       3.86485578       1.44199781
Si       2.75950961       0.98332302       5.86301337
Si       7.25608191       8.82048509       3.17398018
Si       7.29649780      11.18991917       0.28972460
Si       4.25413742       2.12566264      -1.10587373
Si       2.72508247       2.63558088       4.05314613
Si       4.85349538       7.49508917       0.85900486
Si       5.51484320       9.63862186       0.53713216
Si       2.18785109       1.92288863       0.26889091
Si       6.55596649       5.18398217       4.30280272
Si       7.04435455       5.38449606       0.50073574
Si       3.54476814       4.26799813      -0.25638976
Si       6.45243070       6.70987740       2.47833958
Si       8.58516043       9.56315555       1.45669732
Si       5.83815231       1.43905876       4.05143125
Si       4.89271787       3.58081104       3.78219187
18
Lattice="5.703075148125409 1.1683207940918097 -0.22920919747459154 3.982295812065413 10.067120306515667 -1.9341976264737446 1.9561228364301078 -0.5018808736790326 7.463642591181092" Properties=species:S:1:pos:R:3 unique_starting_index=194 config_type=initial n_minim_iter=16 stress="-0.00356010782611158 -0.0003658435556010232 0.0013021430077622238 -0.0003658435556010232 -0.004373081014002328 0.0014712497357411889 0.0013021430077622238 0.0014712497357411889 -0.0015810419413508203" pbc="T T T"
Si       5.67111157       1.64983581       0.70731277
Si       7.07989516       5.46364111       6.59003176
Si       5.22803997       3.86721022       1.42908353
Si       2.74523031       0.98311707       5.84849210
Si       7.22944030       8.85096504       3.18493691
Si       7.26738790      11.21195982       0.33767432
Si       4.22854588       2.15203114      -1.10043059
Si       2.73532303       2.64247121       4.07649442
Si       4.82945848       7.48882391       0.91484728
Si       5.48746403       9.63417835       0.56865831
Si       2.16706469       1.92200787       0.29878663
Si       6.54983062       5.19710553       4.31561099
Si       7.03384985       5.38849228       0.53086426
Si       3.53119343       4.29381287      -0.25618145
Si       6.45641111       6.72564478       2.50557346
Si       8.59138584       9.60649180       1.50553231
Si       5.85703630       1.47371221       4.03766900
Si       4.88963892       3.60932207       3.76644757
18
Lattice="5.7154208241840605 1.1773108504115974 -0.2544652184060675 3.998457506841746 10.132317054963485 -1.9880477426388616 1.9344993957295031 -0.5302332938055789 7.458703089658824" Properties=species:S:1:pos:R:3 unique_starting_index=194 config_type=initial n_minim_iter=17 stress="0.0001231026556754614 0.0005576792698850893 -0.000619229212362665 0.0005576792698850893 0.0011181529725543468 5.31684493324552e-05 -0.000619229212362665 5.31684493324552e-05 -0.00044946679484419647" pbc="T T T"
Si       5.68517032       1.65979544       0.67415980
Si       7.06932490       5.47097663       6.53867172
Si       5.22689215       3.87099477       1.40386878
Si       2.72043015       0.96918226       5.82151283
Si       7.22837628       8.89814608       3.12421666
Si       7.27492607      11.27750599       0.26237635
Si       4.24565580       2.17807614      -1.13148430
Si       2.73299193       2.64462981       4.06514611
Si       4.83446261       7.51919198       0.87269512
Si       5.49085518       9.68332109       0.52735306
Si       2.17141988       1.93567437       0.27321567
Si       6.55185281       5.22191458       4.26104126
Si       7.04248197       5.42167934       0.47645265
Si       3.55388225       4.31491982      -0.26641137
Si       6.45887724       6.76350925       2.45561061
Si       8.61556796       9.66739600       1.43786833
Si       5.86297633       1.46535888       4.01207141
Si       4.88782561       3.61323473       3.73986749
18
Lattice="5.72982417739063 1.1708703632992437 -0.26587878080223243 3.9903367378840735 10.176870356975858 -2.0268521955852483 1.9313506360986479 -0.5571830678032245 7.473950377086964" Properties=species:S:1:pos:R:3 unique_starting_index=194 config_type=initial n_minim_iter=18 stress="0.0035037447668782576 -0.00023129908280245272 -0.0009043208589454812 -0.00023129908280245272 0.005280964880607315 -0.001636852841809505 -0.0009043208589454812 -0.001636852841809505 0.002319701530073688" pbc="T T T"
Si       5.71230015       1.65504708       0.64935922
Si       7.05941742       5.46595392       6.53350440
Si       5.21897357       3.84003964       1.40297735
Si       2.70357890       0.94765584       5.80828864
Si       7.21434844       8.93223745       3.08293778
Si       7.24820340      11.30497820       0.22380878
Si       4.25263529       2.20404679      -1.15208149
Si       2.74104042       2.64518336       4.07553486
Si       4.82669415       7.49955700       0.85642230
Si       5.48415924       9.70445982       0.51165071
Si       2.16241653       1.94662496       0.24517246
Si       6.56793643       5.23048915       4.22611782
Si       7.04449983       5.42481384       0.44071755
Si       3.57879225       4.32993252      -0.25030197
Si       6.45727365       6.78666595       2.42606232
Si       8.63115668       9.71554291       1.40883359
Si       5.88918612       1.45459692       4.01335118
Si       4.88966553       3.60572307       3.73504573
18
Lattice="5.713034370980444 1.163454598798379 -0.25445299676228955 3.978243300342727 10.104308542852985 -1.995992073730366 1.935720493113176 -0.5367173831704621 7.484376263986034" Properties=species:S:1:pos:R:3 unique_starting_index=194 config_type=initial n_minim_iter=19 stress="-0.0006873944016095185 -3.043487153293405e-05 0.00024306118250749264 -3.043487153293405e-05 -0.0015709535273349716 0.00019295528722239417 0.00024306118250749264 0.00019295528722239417 -0.0007716527394934712" pbc="T T T"
Si       5.72937844       1.64332445       0.65886254
Si       7.02581681       5.45554811       6.56108742
Si       5.21798614       3.79002348       1.46745709
Si       2.71443144       0.97420821       5.80350179
Si       7.20413080       8.89249966       3.10475826
Si       7.20985906      11.22194880       0.26208784
Si       4.24815404       2.18577397      -1.13047747
Si       2.73601309       2.64623169       4.07566454
Si       4.80240951       7.43538488       0.87138405
Si       5.47504676       9.63207644       0.55678132
Si       2.15597993       1.94107168       0.22860721
Si       6.57112300       5.21845831       4.23692610
Si       7.01111150       5.38045127       0.45147359
Si       3.59197197       4.29336544      -0.17507958
Si       6.42995205       6.75315631       2.43778217
Si       8.58826150       9.65406296       1.43496531
Si       5.87064535       1.45866841       4.04979387
Si       4.88795152       3.59191686       3.78344923
18
Lattice="5.727122869137051 1.1748961004189367 -0.24240740154231769 4.005914812361101 10.106358258311708 -1.9104676086060948 1.9427646120621853 -0.47519311936693664 7.4641320533226345" Properties=species:S:1:pos:R:3 unique_starting_index=194 config_type=initial n_minim_iter=20 stress="-0.0022561897230585623 -0.0001861286330726693 0.0008944803656561728 -0.0001861286330726693 -0.00332169781332889 0.00178848679332581 0.0008944803656561728 0.00178848679332581 -0.0003566872942769668" pbc="T T T"
Si       5.76906891       1.64925566       0.65892254
Si       7.04818552       5.52013801       6.59651153
Si       5.24903970       3.77974759       1.48813768
Si       2.70389578       1.01695462       5.80693627
Si       7.21799784       8.95424985       3.14991859
Si       7.20992616      11.25508581       0.36998886
Si       4.23554842       2.20730407      -1.08632162
Si       2.75195197       2.69936784       4.08308793
Si       4.81999776       7.45732931       0.93325018
Si       5.51203205       9.63379862       0.63422483
Si       2.14502331       1.95135071       0.20983422
Si       6.60307917       5.24693105       4.27794897
Si       7.04309284       5.38636891       0.48867223
Si       3.61093496       4.32147073      -0.13616101
Si       6.46865887       6.80845095       2.47771649
Si       8.66371282       9.71924492       1.52783208
Si       5.90753454       1.51375462       4.06430457
Si       4.92129839       3.63802481       3.81148878
18
Lattice="5.713712514282475 1.1770309775370242 -0.26054324707104043 3.9967178355305517 10.14146348886603 -1.960994640347813 1.9212264943208535 -0.5045247131675956 7.4700598906706706" Properties=species:S:1:pos:R:3 unique_starting_index=194 config_type=initial n_minim_iter=21 stress="-0.002238821154544364 -5.884570919442671e-05 0.0006213123292078156 -5.884570919442671e-05 -0.0015507444124086282 0.0006724097835196135 0.0006213123292078156 0.0006724097835196135 -0.00014295288892073374" pbc="T T T"
Si       5.78309244       1.64420322       0.62757891
Si       7.00305372       5.51051305       6.54812057
Si       5.23955410       3.75788259       1.49017768
Si       2.68105729       1.00676571       5.78894216
Si       7.18663095       8.97389947       3.08453368
Si       7.16823358      11.28317461       0.30841364
Si       4.23248256       2.22221928      -1.09144342
Si       2.73667586       2.69770450       4.06139196
Si       4.78286176       7.46848362       0.89378526
Si       5.48667131       9.63871687       0.59822038
Si       2.13621004       1.95360827       0.18535548
Si       6.58574054       5.25248035       4.24139824
Si       7.01202198       5.39101014       0.44182798
Si       3.61189603       4.33515322      -0.12241977
Si       6.44647328       6.81855052       2.43326566
Si       8.63291054       9.75289330       1.46381291
Si       5.88605982       1.50739601       4.05545383
Si       4.91026293       3.63567335       3.80761930
