14
Lattice="5.708194251351223 -0.4081761573217283 0.49259591928701774 -0.4351541067124116 5.379802280267089 -1.2750997574636538 0.9903706221903689 -3.428912117530407 9.865430490408848" Properties=species:S:1:pos:R:3 unique_starting_index=196 config_type=initial n_minim_iter=1 energy=-2277.1233772192227 free_energy=-2277.1233772192227 pbc="T T T"
Si       3.68364114      -0.98839924       9.35565851
Si       5.09969226       0.97774445       6.33750850
Si       2.89096774       0.49556531       7.35293748
Si       0.65360846       3.25896452       0.90625814
Si       1.50037431       3.58201619       3.07435341
Si       5.97757930      -1.33314847       6.26276830
Si       3.84501634       0.59594723       4.27236562
Si       2.65093224      -2.00445387       7.44382921
Si       1.55674971      -2.22328427       9.68104089
Si       1.49125158       1.42150283       4.56768846
Si      -0.10925118       4.31602215      -1.02225265
Si       5.79629072      -1.75910777       8.55708194
Si       2.36223380       4.76150258      -0.10851387
Si       3.57981378       3.02764565       4.14251720
14
Lattice="5.698592357296806 -0.4056422509982636 0.5025817307602202 -0.4368043054473933 5.32188853769217 -1.2936586629486637 1.0036268158262907 -3.421590333899443 9.880932044510294" Properties=species:S:1:pos:R:3 unique_starting_index=196 config_type=initial n_minim_iter=2 stress="-0.005306144313717319 -8.098596086829526e-05 0.0007985911457328392 -8.098596086829526e-05 -0.008210219241736226 -0.00046444396627660234 0.0007985911457328392 -0.00046444396627660234 -0.0046096842350546565" pbc="T T T"
Si       3.69428968      -1.00866488       9.36631715
Si       5.09743160       0.94444365       6.34445121
Si       2.89692917       0.46748441       7.36262967
Si       0.65773651       3.22212546       0.89920512
Si       1.50577603       3.53160734       3.06834321
Si       5.97483224      -1.33548713       6.27941985
Si       3.83897148       0.57431144       4.27645738
Si       2.66082742      -2.00844355       7.45637031
Si       1.56698106      -2.23174243       9.68996576
Si       1.49347717       1.39213033       4.56890524
Si      -0.10574735       4.27173571      -1.04075917
Si       5.79143359      -1.76958838       8.57027853
Si       2.35504202       4.70293561      -0.12161787
Si       3.58062416       2.97749099       4.13873211
14
Lattice="5.768247099369531 -0.4070514293529485 0.5236952158843394 -0.444477131598475 5.2962409770963825 -1.3575735008929009 1.0329588392725506 -3.4772420647467572 10.067618490785826" Properties=species:S:1:pos:R:3 unique_starting_index=196 config_type=initial n_minim_iter=3 stress="0.006817296410272374 0.0012658200607341945 0.002666164086704779 0.0012658200607341945 -0.004523614483537078 -0.0017132577026271764 0.002666164086704779 -0.0017132577026271764 0.010811711161347645" pbc="T T T"
Si       3.76768557      -1.08101805       9.52776099
Si       5.16027995       0.88498332       6.44950866
Si       2.94612394       0.41278052       7.49897822
Si       0.68267746       3.20869559       0.89858366
Si       1.54401993       3.48765136       3.10031149
Si       6.05327011      -1.36514419       6.40699258
Si       3.87327231       0.53295257       4.34267241
Si       2.71859837      -2.06454053       7.59610202
Si       1.59584135      -2.30273320       9.85107239
Si       1.51238035       1.35310304       4.64131837
Si      -0.08932215       4.25874074      -1.10528620
Si       5.84937740      -1.83568792       8.71735170
Si       2.37516868       4.66165909      -0.15982032
Si       3.63646883       2.92030232       4.18463072
14
Lattice="5.7548311738744315 -0.43206086883744826 0.4882833861747485 -0.4545714766664729 5.348673510997518 -1.3667738132507739 0.9859699783384359 -3.552052059173751 9.988042876017275" Properties=species:S:1:pos:R:3 unique_starting_index=196 config_type=initial n_minim_iter=4 stress="0.0017632238336388617 0.00021859983493298607 -0.0005344326745562272 0.00021859983493298607 0.0016594011323408946 -0.002241396014141501 -0.0005344326745562272 -0.002241396014141501 0.0007653321077369356" pbc="T T T"
Si       3.72401498      -1.15112735       9.42314434
Si       5.09470396       0.84682822       6.36079043
Si       2.89876229       0.38426404       7.43853533
Si       0.68553100       3.25311901       0.88302913
Si       1.53061185       3.50588539       3.06069949
Si       6.00309660      -1.40970469       6.33185685
Si       3.81294822       0.50060563       4.27568657
Si       2.69463749      -2.13730160       7.52341785
Si       1.53476021      -2.37540892       9.74136334
Si       1.46833112       1.35019662       4.59600516
Si      -0.06975307       4.30596133      -1.12913015
Si       5.76193953      -1.92177688       8.59726417
Si       2.34356355       4.68378006      -0.19589679
Si       3.60233022       2.91143614       4.11111490
14
Lattice="5.747861108619784 -0.4416041835777195 0.489032368120589 -0.4672698780787333 5.331106407531149 -1.3341885888360814 0.997178999787339 -3.483967389806839 9.981986260544582" Properties=species:S:1:pos:R:3 unique_starting_index=196 config_type=initial n_minim_iter=5 stress="-0.0022098807050266902 0.0006759454569352108 0.0008207773479504049 0.0006759454569352108 0.0005543470345530487 0.0019922532547249497 0.0008207773479504049 0.0019922532547249497 -0.0013374959905247616" pbc="T T T"
Si       3.73166408      -1.10467883       9.43377090
Si       5.07284917       0.87314409       6.37833770
Si       2.90044095       0.42721491       7.47351837
Si       0.69434502       3.26757080       0.90850659
Si       1.53572790       3.52285183       3.10453399
Si       5.99867705      -1.36881209       6.34141223
Si       3.78400432       0.51309687       4.28383830
Si       2.71340864      -2.10417893       7.52379131
Si       1.53337619      -2.30619363       9.71808837
Si       1.45548851       1.38370053       4.62208911
Si      -0.05627875       4.28883579      -1.11217804
Si       5.74058853      -1.89337204       8.59051298
Si       2.32297832       4.66413280      -0.16269595
Si       3.59851286       2.91750943       4.13704324
14
Lattice="5.799276533209111 -0.5065139275418847 0.4470676234806755 -0.5228510281943071 5.302934669079097 -1.3591522881437639 0.9660432066652401 -3.512171204046744 10.034172834079861" Properties=species:S:1:pos:R:3 unique_starting_index=196 config_type=initial n_minim_iter=6 stress="-0.004570735226927319 -0.0013185230561194965 -0.002590685648936015 -0.0013185230561194965 -0.00012159942895955528 0.002576544000454703 -0.002590685648936015 0.002576544000454703 -0.005913473755960955" pbc="T T T"
Si       3.70992280      -1.19720692       9.45587601
Si       5.01000206       0.78134161       6.35622802
Si       2.87277332       0.36097538       7.52946540
Si       0.69976584       3.26556381       0.89392584
Si       1.51603251       3.48942779       3.13349927
Si       6.01489741      -1.42353509       6.33751089
Si       3.70943638       0.43398545       4.26112432
Si       2.74167770      -2.18539786       7.54770593
Si       1.47041008      -2.31616471       9.68924816
Si       1.38582091       1.36630690       4.65126091
Si      -0.03271637       4.24745373      -1.15784470
Si       5.69314872      -2.03002643       8.56591613
Si       2.28139739       4.59869369      -0.19577274
Si       3.58398746       2.81921275       4.11196149
14
Lattice="5.8489650880125685 -0.533962771328457 0.4832528995520894 -0.5572165738713089 5.289287485107409 -1.4095721387289177 1.0405656031289756 -3.571913483671213 10.136770912282461" Properties=species:S:1:pos:R:3 unique_starting_index=196 config_type=initial n_minim_iter=7 stress="-0.005220877239420043 -0.0014832702623853095 0.0018364891249179906 -0.0014832702623853095 0.0024889639096244364 0.0013843291024327276 0.0018364891249179906 0.0013843291024327276 -0.002723779451338461" pbc="T T T"
Si       3.79164231      -1.28904052       9.56268706
Si       5.03104210       0.71056719       6.40812272
Si       2.94957553       0.28262986       7.62873453
Si       0.73178052       3.25766141       0.87520469
Si       1.54874667       3.46900281       3.17902374
Si       6.10848581      -1.46397261       6.42842902
Si       3.69483667       0.37034211       4.29997768
Si       2.84816696      -2.27103195       7.63499078
Si       1.51923074      -2.33854829       9.71677612
Si       1.38502804       1.34666389       4.70422608
Si      -0.00311135       4.21253760      -1.21038749
Si       5.75432669      -2.15417838       8.65243851
Si       2.28569089       4.57634802      -0.20732489
Si       3.63983569       2.74119250       4.14031602
14
Lattice="5.910339040591279 -0.5200307559227328 0.46109316263536976 -0.546612667135996 5.244456486700167 -1.414297854329522 1.00480752733906 -3.549202443514195 10.152565007151244" Properties=species:S:1:pos:R:3 unique_starting_index=196 config_type=initial n_minim_iter=8 stress="0.0005039869415617599 0.0002981037080555553 -0.0014169928313507896 0.0002981037080555553 -0.0013470810229438172 0.0019097001812713747 -0.0014169928313507896 0.0019097001812713747 -0.0008381330309525252" pbc="T T T"
Si       3.78418047      -1.28162899       9.57469119
Si       5.03604693       0.70897670       6.38476550
Si       2.96808597       0.26359792       7.63498870
Si       0.75577615       3.22775001       0.86550536
Si       1.56291946       3.45428165       3.19287982
Si       6.15595268      -1.43715226       6.41613205
Si       3.68887583       0.36105729       4.28992356
Si       2.86166423      -2.26526533       7.64114200
Si       1.48357378      -2.29845220       9.69940320
Si       1.36889046       1.34608611       4.71282356
Si       0.02909217       4.16294875      -1.21522300
Si       5.77134169      -2.15707873       8.63965050
Si       2.33850286       4.55767357      -0.21190362
Si       3.67845597       2.71094633       4.13241205
14
Lattice="5.924532055156472 -0.530201878638076 0.4886286684601344 -0.5598726473593606 5.245864777224545 -1.4543711076367771 1.0523982227396056 -3.610718582595063 10.200911924425094" Properties=species:S:1:pos:R:3 unique_starting_index=196 config_type=initial n_minim_iter=9 stress="0.0016396124675276181 0.00020317670271757343 0.0007558272163960166 0.00020317670271757343 0.000276738751396626 -0.0009926885688073287 0.0007558272163960166 -0.0009926885688073287 0.00167937960087739" pbc="T T T"
Si       3.82147087      -1.34315261       9.63213637
Si       5.04089584       0.66146986       6.39339227
Si       3.02614261       0.18832896       7.65764397
Si       0.76781970       3.20559807       0.84476439
Si       1.57048369       3.44366555       3.19520522
Si       6.20497208      -1.47627513       6.46326701
Si       3.68124886       0.31618882       4.30905848
Si       2.91799488      -2.32520813       7.68770124
Si       1.52482330      -2.33875660       9.71946703
Si       1.37135712       1.32380814       4.72255636
Si       0.03102689       4.15257176      -1.24101237
Si       5.81211321      -2.23625468       8.68608867
Si       2.36402650       4.57360078      -0.22214955
Si       3.70860463       2.66753228       4.14172844
14
Lattice="5.951404667909261 -0.5492083266889008 0.48792854927462853 -0.5786570102533215 5.216374863872399 -1.4906365842338576 1.0600400704637845 -3.6489166553471897 10.253014701322305" Properties=species:S:1:pos:R:3 unique_starting_index=196 config_type=initial n_minim_iter=10 stress="0.0033132428604260022 -0.00012345210977806478 0.0009306807898429938 -0.00012345210977806478 -0.0019155188891153546 -0.0020484631815342407 0.0009306807898429938 -0.0020484631815342407 0.003374238017528827" pbc="T T T"
Si       3.82841091      -1.39487074       9.69398557
Si       4.98993043       0.60086358       6.36351599
Si       3.07639704       0.08998406       7.68542819
Si       0.79409614       3.16534399       0.83125601
Si       1.56515902       3.42841814       3.20391034
Si       6.23969609      -1.50083373       6.49646535
Si       3.61613309       0.24846634       4.30985583
Si       2.97417672      -2.39050773       7.73324415
Si       1.52056719      -2.36870826       9.72228804
Si       1.32786001       1.30837090       4.73439508
Si       0.05397464       4.11947081      -1.27194637
Si       5.79690259      -2.32693001       8.69238778
Si       2.40731441       4.57450899      -0.23414294
Si       3.73234091       2.59458715       4.14113915
14
Lattice="5.9186829443218825 -0.5410845777543317 0.4716252558560885 -0.5628830556840873 5.225027828951776 -1.5064251474945016 1.0194041639547948 -3.685784950943247 10.244503923986642" Properties=species:S:1:pos:R:3 unique_starting_index=196 config_type=initial n_minim_iter=11 stress="0.002462139561142122 0.001501593541723152 0.0013443925964894791 0.001501593541723152 -0.0007792751317581128 -0.0008706307052682735 0.0013443925964894791 -0.0008706307052682735 0.001767307725208099" pbc="T T T"
Si       3.78385991      -1.39841411       9.70310623
Si       4.88740030       0.58287207       6.28262951
Si       3.08632389       0.02077382       7.66772503
Si       0.82743375       3.15360005       0.82786929
Si       1.54985933       3.45661573       3.18328362
Si       6.18794767      -1.48793043       6.48790977
Si       3.51185788       0.21046493       4.28092798
Si       2.97313534      -2.43802451       7.73432080
Si       1.48085683      -2.42129932       9.69635166
Si       1.26781503       1.32121041       4.70999594
Si       0.08977427       4.13682024      -1.28831851
Si       5.69377239      -2.36708238       8.63836147
Si       2.45930626       4.63114519      -0.24145667
Si       3.72042626       2.57850196       4.11815261
14
Lattice="5.8833322397429555 -0.571811333046512 0.44045336376598765 -0.5798136895001851 5.240426423233054 -1.5211327524974836 0.9733510854297203 -3.724683528416236 10.26445406045045" Properties=species:S:1:pos:R:3 unique_starting_index=196 config_type=initial n_minim_iter=12 stress="0.0014760647881330558 -0.0005396255298576929 -0.0005164910073179983 -0.0005396255298576929 -0.000510753805185291 -0.0007311483350006409 -0.0005164910073179983 -0.0007311483350006409 0.0008680135911248187" pbc="T T T"
Si       3.72634609      -1.42940824       9.71378744
Si       4.80023858       0.53769200       6.23771939
Si       3.03513318      -0.03267102       7.67672340
Si       0.81940403       3.15544763       0.82183874
Si       1.50416567       3.45383502       3.16420691
Si       6.11262288      -1.52244808       6.47933047
Si       3.43321900       0.17392282       4.25713224
Si       2.93886577      -2.48965331       7.74504298
Si       1.43087404      -2.48940986       9.71396172
Si       1.20797695       1.31643541       4.69707320
Si       0.08908944       4.16234747      -1.31078784
Si       5.59645159      -2.42364381       8.61357564
Si       2.43491611       4.63810181      -0.26539419
Si       3.66074552       2.54902385       4.09415671
14
Lattice="5.836190447143315 -0.5660632298839255 0.42742889767857 -0.5662149382956563 5.266405938634819 -1.519051935396994 0.9394326931119852 -3.741603817153592 10.247841583592244" Properties=species:S:1:pos:R:3 unique_starting_index=196 config_type=initial n_minim_iter=13 stress="-0.00023873139980202035 0.0010308130594523682 -0.000681805487974599 0.0010308130594523682 0.0008480007837588363 9.900163138423455e-05 -0.000681805487974599 9.900163138423455e-05 -0.0006878856919196074" pbc="T T T"
Si       3.68855026      -1.41265626       9.70106560
Si       4.75407675       0.54201511       6.20146235
Si       2.99443934      -0.03819743       7.66945281
Si       0.82106474       3.17303472       0.81724762
Si       1.48397158       3.46792774       3.14332271
Si       6.04175241      -1.51376904       6.46576385
Si       3.39233559       0.18353180       4.23333603
Si       2.89574868      -2.49950792       7.73652499
Si       1.40402318      -2.53335803       9.71814809
Si       1.18579557       1.32858721       4.67067685
Si       0.09652291       4.19957411      -1.31308570
Si       5.52752255      -2.41736347       8.59145730
Si       2.42677142       4.66738448      -0.27083443
Si       3.61699903       2.56735318       4.07563831
14
Lattice="5.805662538521376 -0.6254934873040191 0.4044787233955903 -0.6112251368509728 5.289098329125982 -1.5413531321599532 0.9232965073281706 -3.7989313049936912 10.28000304787216" Properties=species:S:1:pos:R:3 unique_starting_index=196 config_type=initial n_minim_iter=14 stress="-0.0019201901975760677 -0.0021612759912871373 -0.0007830164099974514 -0.0021612759912871373 -0.0012590949311561575 0.001382925648833526 -0.0007830164099974514 0.001382925648833526 -0.0016871123358407388" pbc="T T T"
Si       3.66355505      -1.45602267       9.74597647
Si       4.65779656       0.46256217       6.13825712
Si       2.95566519      -0.13471575       7.72601635
Si       0.82414909       3.18252657       0.78902156
Si       1.42497393       3.45470244       3.13650202
Si       5.97907468      -1.56188938       6.48370706
Si       3.27944953       0.13325707       4.19291112
Si       2.89628709      -2.59428191       7.77778056
Si       1.37654499      -2.62750171       9.73158915
Si       1.10559432       1.33575934       4.64530679
Si       0.10563388       4.22656559      -1.34834430
Si       5.44408532      -2.53051392       8.58726924
Si       2.38481441       4.66968779      -0.28810538
Si       3.54089742       2.50391293       4.04732464
14
Lattice="5.749876351018254 -0.6169585665785381 0.40562969783812236 -0.5949434294215596 5.349639760757279 -1.5403450289866536 0.9098336470207806 -3.8400650162749317 10.253407589309319" Properties=species:S:1:pos:R:3 unique_starting_index=196 config_type=initial n_minim_iter=15 stress="-0.0028800816386042945 0.0013807561618709063 0.00014092038749474362 0.0013807561618709063 0.004655208338513739 0.001368407334909791 0.00014092038749474362 0.001368407334909791 -0.00010567002430020456" pbc="T T T"
Si       3.64471106      -1.43062922       9.74279318
Si       4.64260370       0.47351050       6.10056046
Si       2.92190653      -0.14598026       7.71401558
Si       0.81522305       3.21209803       0.75432587
Si       1.39027725       3.46788312       3.11324704
Si       5.91636244      -1.56128301       6.47538506
Si       3.26096641       0.17543176       4.15203540
Si       2.84105875      -2.61133233       7.78262587
Si       1.37998815      -2.67236792       9.73834189
Si       1.10535748       1.36104929       4.58736486
Si       0.09949026       4.27671608      -1.33232500
Si       5.43030874      -2.53629110       8.60325087
Si       2.37672661       4.73471737      -0.28346393
Si       3.48123382       2.54376112       4.02224690
14
Lattice="5.826903915505365 -0.632114033430795 0.41564779185370315 -0.6163061774024718 5.319564208639996 -1.5772104449600837 0.9470788792695268 -3.8928099566006344 10.239102077760524" Properties=species:S:1:pos:R:3 unique_starting_index=196 config_type=initial n_minim_iter=16 stress="0.0009536670827413102 0.0006030853163511345 0.000615751166283974 0.0006030853163511345 -0.00037430815797591296 -0.0007645592288207548 0.000615751166283974 -0.0007645592288207548 -0.0004045291601761819" pbc="T T T"
Si       3.73072430      -1.49676396       9.74199651
Si       4.68687690       0.40555214       6.04843827
Si       2.99683030      -0.24335903       7.70161995
Si       0.83562735       3.17547557       0.70994615
Si       1.39101492       3.41181371       3.09233428
Si       6.00991212      -1.60097546       6.47748578
Si       3.25833279       0.13999611       4.10508680
Si       2.91148603      -2.68286234       7.79673785
Si       1.42020168      -2.70374237       9.68604719
Si       1.10181025       1.34061506       4.53773851
Si       0.11622091       4.23029885      -1.35421460
Si       5.52011435      -2.63434237       8.59969413
Si       2.42066380       4.71381366      -0.30149354
Si       3.52197199       2.47168899       3.97948581
14
Lattice="5.800120085826708 -0.6807155681393552 0.3922240420045433 -0.6553654235762137 5.304832356851897 -1.5832993346250117 0.9277583486289658 -3.894342128026091 10.277062285359163" Properties=species:S:1:pos:R:3 unique_starting_index=196 config_type=initial n_minim_iter=17 stress="0.0012814129201906943 -0.0026269173727487254 -0.0008929102630893078 -0.0026269173727487254 -0.0030543513461032848 8.501416250079217e-05 -0.0008929102630893078 8.501416250079217e-05 0.0035785485876621377" pbc="T T T"
Si       3.72641996      -1.52011349       9.78459473
Si       4.62977209       0.35067920       6.03664270
Si       2.96884017      -0.29094663       7.71331999
Si       0.78537592       3.15106563       0.71953127
Si       1.30502408       3.37295571       3.09025255
Si       5.94623667      -1.65208202       6.49622303
Si       3.18695160       0.11824905       4.07022945
Si       2.88300588      -2.72215072       7.83841209
Si       1.40793916      -2.72480617       9.73039636
Si       1.04977392       1.34513966       4.51386783
Si       0.08429354       4.21151435      -1.35797015
Si       5.47746032      -2.69058159       8.62144905
Si       2.38176528       4.69070962      -0.30284924
Si       3.44528979       2.44287487       3.96691907
14
Lattice="5.796134234327971 -0.6609121221981903 0.3886888463302133 -0.6338276797704625 5.315919580982979 -1.5947392881254467 0.9100671464300705 -3.9295268668600385 10.236248455614449" Properties=species:S:1:pos:R:3 unique_starting_index=196 config_type=initial n_minim_iter=18 stress="-0.0005004218883452913 -0.0005923969986471187 -0.00024188721168635625 -0.0005923969986471187 -0.0025367290715899433 -0.0003297798910559247 -0.00024188721168635625 -0.0003297798910559247 0.001839856840979461" pbc="T T T"
Si       3.74834317      -1.53277234       9.74811293
Si       4.62222306       0.34551650       5.98906598
Si       2.98161513      -0.31256393       7.67588768
Si       0.79754889       3.15901358       0.71291747
Si       1.30237551       3.37394607       3.06151245
Si       5.92812187      -1.64803091       6.47653383
Si       3.15438243       0.11920011       4.02341450
Si       2.87837205      -2.75737945       7.81776670
Si       1.40264343      -2.75936054       9.68517478
Si       1.04139559       1.35516154       4.46725632
Si       0.11505818       4.22000903      -1.37102493
Si       5.45725686      -2.71556453       8.58185968
Si       2.41023344       4.71755270      -0.31216152
Si       3.44866239       2.45712389       3.92573452
14
Lattice="5.819547652417093 -0.6550915048217253 0.38771122818409226 -0.6290505231971553 5.338668304896799 -1.5858304947077053 0.9154264226879122 -3.947764260677504 10.146010381375902" Properties=species:S:1:pos:R:3 unique_starting_index=196 config_type=initial n_minim_iter=19 stress="0.0005512750072137059 -0.00019365935963208187 0.0005016404236327761 -0.00019365935963208187 0.0005633662050674918 0.0002837771979520609 0.0005016404236327761 0.0002837771979520609 -0.00037470335256736874" pbc="T T T"
Si       3.79479271      -1.52910204       9.67210207
Si       4.64621999       0.34759710       5.92769376
Si       3.01178148      -0.31422380       7.60908898
Si       0.80370563       3.17633074       0.70958104
Si       1.29808405       3.38998847       3.03293097
Si       5.94593963      -1.64822410       6.43185054
Si       3.14581360       0.12691373       3.96602008
Si       2.89677107      -2.78095133       7.75795296
Si       1.42074543      -2.77323168       9.60056881
Si       1.04234118       1.37680029       4.40910927
Si       0.13282327       4.23451401      -1.36752143
Si       5.48449940      -2.73692629       8.50871280
Si       2.43252322       4.74552891      -0.30339167
Si       3.46406403       2.48551374       3.87975049
14
Lattice="5.809493960971454 -0.6308993023428311 0.364488383629472 -0.5978937597576609 5.360442330599516 -1.595626769882432 0.8594542399591232 -3.9873899203731864 10.108073945625486" Properties=species:S:1:pos:R:3 unique_starting_index=196 config_type=initial n_minim_iter=20 stress="-0.0018871558898559241 0.0018331709611523839 -0.0001565400094663854 0.0018331709611523839 0.0011774037916976296 -0.0005638964760269745 -0.0001565400094663854 -0.0005638964760269745 -0.001070560169846887" pbc="T T T"
Si       3.77334942      -1.53304233       9.63269778
Si       4.61892224       0.34605340       5.86490302
Si       2.99566204      -0.32646204       7.56979573
Si       0.81965851       3.19523520       0.69270509
Si       1.28079735       3.40910701       3.01095615
Si       5.89670844      -1.64354706       6.39550599
Si       3.09052118       0.13378028       3.90770300
Si       2.86574481      -2.81788727       7.72413169
Si       1.38126878      -2.80395748       9.56084691
Si       1.01741372       1.39292009       4.36210628
Si       0.17992664       4.24963833      -1.38849537
Si       5.43772720      -2.77599676       8.45489847
Si       2.45655265       4.77704941      -0.31108328
Si       3.45250426       2.51722608       3.82843038
14
Lattice="5.843264376504269 -0.6434907738337012 0.3609279599241887 -0.6135699167683596 5.367909389173721 -1.5659160934555814 0.8762940397145074 -3.960119356354083 10.019769336531914" Properties=species:S:1:pos:R:3 unique_starting_index=196 config_type=initial n_minim_iter=21 stress="0.0010804082891049745 -0.0004173108220005916 -0.00014892863002041176 -0.0004173108220005916 0.0012977799768011079 0.0010141022626199724 -0.00014892863002041176 0.0010141022626199724 -0.001570446692240306" pbc="T T T"
Si       3.80049814      -1.50038160       9.56212141
Si       4.66492032       0.34969062       5.81914593
Si       3.01864272      -0.29465378       7.50570454
Si       0.81197940       3.20262311       0.69323138
Si       1.26058114       3.43931844       3.00542120
Si       5.92522870      -1.65230627       6.34737208
Si       3.10612187       0.14812410       3.87011096
Si       2.89085200      -2.79662925       7.64618060
Si       1.41262476      -2.78042668       9.50791568
Si       1.02304903       1.40680031       4.32585326
Si       0.17026209       4.25570918      -1.37429785
Si       5.49722676      -2.78156220       8.38438587
Si       2.44813776       4.76816702      -0.27332927
Si       3.45908065       2.55138540       3.80605962
