14
Lattice="6.80177 1.3893360876534952e-16 -4.472375781393174e-16 4.2283563731180567e-16 6.90543 1.106927548801201e-15 -3.130127442281398 9.661988949913744e-16 6.166446250076041" Properties=species:S:1:pos:R:3 unique_starting_index=20 config_type=initial n_minim_iter=1 pbc="T T T"
Si       2.49249625       4.11807666       5.76974088
Si       5.21988334       2.78735334       0.39670537
Si       1.17914631       2.78735334       0.39670537
Si      -1.54824078       4.11807666       5.76974088
Si       4.08320064       4.56206888       3.77898264
Si       4.78954458       2.34336112       2.38746361
Si      -0.41155808       2.34336112       2.38746361
Si      -1.11790202       4.56206888       3.77898264
Si       1.02992360       4.03876641       1.58916966
Si      -0.48685854       2.86666359       4.57727659
Si       2.64171896       2.86666359       4.57727659
Si       4.15850110       4.03876641       1.58916966
Si       3.20158102       4.49983576       0.39263490
Si       0.47006154       2.40559424       5.77381135
14
Lattice="6.95964141913915 -0.009491050650309404 0.009974285893953402 -0.009635695692763725 6.990099353172027 -0.025108598182618656 -3.193736144656134 -0.018053888837403068 6.280708382838502" Properties=species:S:1:pos:R:3 unique_starting_index=20 config_type=initial n_minim_iter=2 pbc="T T T"
Si       2.55342335       4.14663627       5.86830028
Si       5.33687647       2.81029165       0.40312701
Si       1.20284623       2.81591814       0.39727379
Si      -1.58060689       4.15226277       5.86244706
Si       4.17453679       4.59906009       3.84100416
Si       4.89845815       2.35609082       2.43210317
Si      -0.41826721       2.36349433       2.42456991
Si      -1.14218857       4.60646359       3.83347090
Si       1.05048605       4.08130320       1.60782710
Si      -0.49637778       2.88608436       4.65237310
Si       2.70578353       2.88125121       4.65774697
Si       4.25264736       4.07647005       1.61320097
Si       3.26836448       4.55058960       0.38700072
Si       0.48790510       2.41196482       5.87857335
14
Lattice="8.001970142904792 -0.0746123359996843 0.09448653661149967 -0.07574943924629715 7.561975846969742 -0.17281536207260492 -3.5967902747743645 -0.1199854669276069 7.0091200917356735" Properties=species:S:1:pos:R:3 unique_starting_index=20 config_type=initial n_minim_iter=3 pbc="T T T"
Si       2.97020682       4.35921746       6.52095982
Si       6.11134678       2.96588966       0.46771924
Si       1.35922361       3.00816059       0.40983145
Si      -1.78191635       4.40148838       6.46307202
Si       4.78409881       4.86050372       4.26282552
Si       5.62164968       2.44909593       2.73916098
Si      -0.45466839       2.50687432       2.66796574
Si      -1.29221925       4.91828211       4.19163028
Si       1.18909421       4.37489781       1.74129558
Si      -0.54805777       3.03209255       5.14038283
Si       3.14033622       2.99248023       5.18949568
Si       4.87748819       4.33528549       1.79040843
Si       3.70958948       4.89456292       0.36868905
Si       0.61984095       2.47281513       6.56210222
14
Lattice="8.549533096926998 -0.13484979493642454 0.18947499331600143 -0.13690492613655522 7.801190055049285 -0.16297338679997717 -3.7626589554436003 -0.08347586806489149 7.333507657753184" Properties=species:S:1:pos:R:3 unique_starting_index=20 config_type=initial n_minim_iter=4 pbc="T T T"
Si       3.21698422       4.49785018       6.90584273
Si       6.51674179       3.01026273       0.57252921
Si       1.43298500       3.08501421       0.45416653
Si      -1.86677257       4.57260166       6.78748006
Si       5.11128301       4.98939688       4.55096970
Si       6.00758744       2.49011496       2.95138685
Si      -0.46131380       2.59346752       2.80903957
Si      -1.35761823       5.09274944       4.40862241
Si       1.25843828       4.51161445       1.86214032
Si      -0.54992031       3.14267202       5.40410356
Si       3.39153094       3.07124994       5.49786895
Si       5.19988952       4.44019237       1.95590570
Si       3.93035196       5.02566503       0.44007707
Si       0.71961725       2.55719936       6.91993219
14
Lattice="8.787942359774046 -0.18197007823731448 0.2858856106155451 -0.18474332965717732 7.956682410675238 -0.1684278155145017 -3.7849679259935205 -0.06666216375367096 7.448191963286367" Properties=species:S:1:pos:R:3 unique_starting_index=20 config_type=initial n_minim_iter=5 pbc="T T T"
Si       3.35968779       4.57825833       7.08694717
Si       6.68866984       3.02982595       0.65893535
Si       1.45854331       3.12979184       0.47870258
Si      -1.87043874       4.67822422       6.90671441
Si       5.26788985       5.06049230       4.70121066
Si       6.18552806       2.50775166       3.07831666
Si      -0.44965875       2.64755787       2.86443910
Si      -1.36729696       5.20029851       4.48733309
Si       1.28934541       4.59720510       1.91996758
Si      -0.52298210       3.20734722       5.50740461
Si       3.52888569       3.11084507       5.64568218
Si       5.34121320       4.50070295       2.05824515
Si       4.01323704       5.10508799       0.48864263
Si       0.80499407       2.60296217       7.07700713
14
Lattice="8.884041639085723 -0.2177689680088191 0.3894413401584129 -0.2210877999046029 8.083795113606305 -0.18040844860531488 -3.735309109427167 -0.06088628973854912 7.429879655458572" Properties=species:S:1:pos:R:3 unique_starting_index=20 config_type=initial n_minim_iter=6 pbc="T T T"
Si       3.46311134       4.64224082       7.14574518
Si       6.75558835       3.04492644       0.74114281
Si       1.46453339       3.16289904       0.49316737
Si      -1.82794362       4.76021341       6.89776974
Si       5.35148572       5.11470525       4.77127922
Si       6.27004526       2.52236320       3.15671375
Si      -0.42384099       2.69043461       2.86763332
Si      -1.34240053       5.28277665       4.48219880
Si       1.30749944       4.66645054       1.94219172
Si      -0.47621095       3.25552912       5.51148776
Si       3.62014529       3.13868931       5.69672083
Si       5.40385568       4.54961074       2.12742479
Si       4.03663587       5.16930533       0.52743582
Si       0.89100886       2.63583453       7.11147673
14
Lattice="8.871073124852371 -0.23672950311780422 0.49095054005068095 -0.24033729642648438 8.186511437610628 -0.1941133467731567 -3.637313421935328 -0.06439905297002368 7.32656089120786" Properties=species:S:1:pos:R:3 unique_starting_index=20 config_type=initial n_minim_iter=7 pbc="T T T"
Si       3.53483611       4.69716261       7.12237714
Si       6.74524506       3.06247557       0.81593145
Si       1.45858629       3.18822027       0.50102094
Si      -1.75182266       4.82290731       6.80746663
Si       5.38106244       5.16121864       4.78600701
Si       6.28361178       2.54048889       3.19903024
Si      -0.38764004       2.72416424       2.83739107
Si      -1.29018937       5.34489399       4.42436785
Si       1.31922294       4.72343384       1.94061278
Si      -0.41566497       3.29152309       5.45214619
Si       3.67419946       3.16194904       5.68278530
Si       5.40908738       4.59385979       2.17125190
Si       4.02030644       5.22413317       0.55902224
Si       0.97311597       2.66124971       7.06437585
14
Lattice="8.865492052756384 -0.23794663303831146 0.504994123802585 -0.2415729755904349 8.200421160399584 -0.19593416716704393 -3.622013217534187 -0.0654649037322468 7.31083089577234" Properties=species:S:1:pos:R:3 unique_starting_index=20 config_type=initial n_minim_iter=8 pbc="T T T"
Si       3.54418951       4.70515745       7.11782151
Si       6.74152056       3.06586913       0.82615948
Si       1.45771635       3.19185217       0.50206934
Si      -1.73961470       4.83114050       6.79373138
Si       5.38394430       5.16835315       4.78720887
Si       6.28336935       2.54391125       3.20435306
Si      -0.38203844       2.72865647       2.83268198
Si      -1.28146349       5.35309837       4.41553779
Si       1.32118255       4.73137451       1.94000453
Si      -0.40636201       3.29631947       5.44302030
Si       3.68072331       3.16563511       5.67988632
Si       5.40826787       4.60069015       2.17687055
Si       4.01729541       5.23212161       0.56345302
Si       0.98461045       2.66488801       7.05643783
14
Lattice="8.708981577739477 -0.27134350879255187 0.908120523289992 -0.2754788247649295 8.624194385688634 -0.2503316727206785 -3.1845160649870277 -0.09867205595589794 6.869314846220343" Properties=species:S:1:pos:R:3 unique_starting_index=20 config_type=initial n_minim_iter=9 pbc="T T T"
Si       3.81477635       4.95178558       6.99507660
Si       6.63961855       3.17144165       1.11953941
Si       1.43421033       3.30239324       0.53202710
Si      -1.39063186       5.08273717       6.40756429
Si       5.46968086       5.38856716       4.82549260
Si       6.27901137       2.65129181       3.35924532
Si      -0.22069417       2.86561167       2.70161110
Si      -1.03002468       5.60288701       4.16785837
Si       1.38030907       4.97425567       1.92369924
Si      -0.13944289       3.44296978       5.18811384
Si       3.86867762       3.27992315       5.60340446
Si       5.38842958       4.81120905       2.33898986
Si       3.93334628       5.47696134       0.68992917
Si       1.31564041       2.77721748       6.83717453
14
Lattice="8.531755404935545 -0.18386925556407496 1.2268937923834387 -0.1866714507326504 9.125624655325113 -0.2829062465793845 -2.813959763199424 -0.1680157112176644 6.6744720654561815" Properties=species:S:1:pos:R:3 unique_starting_index=20 config_type=initial n_minim_iter=10 pbc="T T T"
Si       4.07849311       5.30899597       7.04720019
Si       6.57003475       3.40319487       1.35959086
Si       1.45263108       3.46474372       0.57125942
Si      -1.03891056       5.37054482       6.25886875
Si       5.58476448       5.74766212       4.95656242
Si       6.27589719       2.87426767       3.55008298
Si      -0.05364029       3.02607757       2.66189719
Si      -0.74477300       5.89947202       4.06837663
Si       1.49591326       5.29003449       1.95878916
Si       0.13138706       3.62532252       5.11135434
Si       4.03521093       3.48370520       5.65967045
Si       5.39973714       5.14841716       2.50710527
Si       3.92473208       5.82412639       0.81348014
Si       1.60639212       2.94961330       6.80497947
14
Lattice="8.275065483474197 0.021090362735165284 1.5944486422931636 0.021411783042102752 9.613248476675013 -0.31494295609161777 -2.362609689138368 -0.2909450128764247 6.335384290150245" Properties=species:S:1:pos:R:3 unique_starting_index=20 config_type=initial n_minim_iter=11 pbc="T T T"
Si       4.43016986       5.72108727       7.00266441
Si       6.49421843       3.71047646       1.61633233
Si       1.50369772       3.62230655       0.61222556
Si      -0.56035085       5.63291736       5.99855764
Si       5.74564798       6.16196313       5.03339622
Si       6.25970541       3.17296531       3.73559793
Si       0.18821960       3.18143069       2.58149375
Si      -0.32583783       6.17042852       3.87929205
Si       1.69706617       5.62530190       1.97667848
Si       0.50242638       3.79438081       4.94291596
Si       4.23680141       3.71809193       5.63821150
Si       5.43144119       5.54901302       2.67197402
Si       3.96342076       6.19267230       0.96049702
Si       1.97044681       3.15072152       6.65439296
14
Lattice="8.5889548043272 0.01985321051795352 1.7457724053195034 0.020155776438633036 9.753231692100949 -0.49505206088817616 -2.3698701119371166 -0.4512104348907154 6.604806504274742" Properties=species:S:1:pos:R:3 unique_starting_index=20 config_type=initial n_minim_iter=12 pbc="T T T"
Si       4.67340672       5.66920140       7.26168679
Si       6.75111904       3.73858322       1.67678330
Si       1.56583375       3.65267307       0.59384005
Si      -0.51187857       5.58329125       6.17874354
Si       6.00301941       6.15407391       5.19936489
Si       6.51769476       3.14917399       3.92592059
Si       0.23622105       3.16780056       2.65616196
Si      -0.27845430       6.17270048       3.92960625
Si       1.79306199       5.66433089       1.99672163
Si       0.59321604       3.73025511       5.10264150
Si       4.44617848       3.65754357       5.85880522
Si       5.64602443       5.59161935       2.75288535
Si       4.11804599       6.25221304       0.93865071
Si       2.12119448       3.06966143       6.91687614
14
Lattice="8.363015387236937 0.03259342636232974 1.7132009638288503 0.03309015509275218 9.570750343615588 -0.502496819418733 -2.295423441954501 -0.46372145258223585 6.371960878617484" Properties=species:S:1:pos:R:3 unique_starting_index=20 config_type=initial n_minim_iter=13 pbc="T T T"
Si       4.56988162       5.55378198       7.01252119
Si       6.58042916       3.67719600       1.63095481
Si       1.53080048       3.58584034       0.57014383
Si      -0.47974706       5.46242631       5.95171021
Si       5.86221034       6.03516173       5.02448069
Si       6.35574827       3.09520695       3.80607327
Si       0.23847176       3.10446059       2.55818433
Si      -0.25506617       6.04441537       3.77659175
Si       1.75860844       5.55516322       1.91992565
Si       0.59429132       3.64931682       4.92068488
Si       4.34207366       3.58445910       5.66273938
Si       5.50639078       5.49030550       2.66198014
Si       4.02003538       6.13280701       0.90617885
Si       2.08064672       3.00681530       6.67648617
14
Lattice="8.373819076778599 0.03978763108674537 1.7326260454103664 0.040394000581515856 9.575045582104767 -0.5160030142802557 -2.282784555846393 -0.47909300683087397 6.355325518163295" Properties=species:S:1:pos:R:3 unique_starting_index=20 config_type=initial n_minim_iter=14 pbc="T T T"
Si       4.59530445       5.55064324       7.00404269
Si       6.59472533       3.68000009       1.63928842
Si       1.53612407       3.58509697       0.56790586
Si      -0.46329681       5.45574011       5.93266013
Si       5.88381405       6.03435105       5.02080673
Si       6.37145430       3.09605345       3.81469054
Si       0.24761447       3.10138916       2.55114182
Si      -0.24002578       6.03968676       3.75725801
Si       1.77190480       5.55587713       1.91556651
Si       0.61292211       3.64048243       4.90800367
Si       4.35952372       3.57986307       5.65638204
Si       5.51850641       5.49525777       2.66394488
Si       4.03173964       6.13183374       0.90779665
Si       2.09968888       3.00390646       6.66415190
14
Lattice="8.376751707985964 0.041885790145115474 1.7386324520408476 0.04252413590018278 9.57530106474396 -0.5200648432551742 -2.2786887581021755 -0.4836857179390291 6.350111974317597" Properties=species:S:1:pos:R:3 unique_starting_index=20 config_type=initial n_minim_iter=15 pbc="T T T"
Si       4.60293044       5.54895606       7.00144506
Si       6.59874384       3.68045172       1.64193516
Si       1.53765664       3.58454507       0.56723452
Si      -0.45815675       5.45304942       5.92674443
Si       5.89024129       6.03340527       5.01975713
Si       6.37606928       3.09591390       3.81733253
Si       0.25034579       3.10009587       2.54892246
Si      -0.23548220       6.03758724       3.75134706
Si       1.77581927       5.55544231       1.91421294
Si       0.61857800       3.63742146       4.90408879
Si       4.36476781       3.57805882       5.65446664
Si       5.52200908       5.49607968       2.66459079
Si       4.03506127       6.13087851       0.90833066
Si       2.10552582       3.00262262       6.66034893
14
Lattice="8.419130726388001 0.0704022670143919 1.8228819186913712 0.07147520817510492 9.577445098066786 -0.575713063542209 -2.2218111984050877 -0.5465018358525506 6.279494273212389" Properties=species:S:1:pos:R:3 unique_starting_index=20 config_type=initial n_minim_iter=16 pbc="T T T"
Si       4.70981722       5.52480637       6.96821893
Si       6.65549640       3.68601659       1.68007125
Si       1.55897752       3.57653916       0.55844420
Si      -0.38670166       5.41532893       5.84659188
Si       5.98069521       6.01953067       5.00769477
Si       6.44174230       3.09322253       3.85554823
Si       0.28809952       3.08181485       2.51896836
Si      -0.17294756       6.00812300       3.67111490
Si       1.83027072       5.54855035       1.89650113
Si       0.69712932       3.59499449       4.85179016
Si       4.43852401       3.55279517       5.63016200
Si       5.57166542       5.50635104       2.67487297
Si       4.08152481       6.11661248       0.91681899
Si       2.18726993       2.98473305       6.60984413
14
Lattice="8.425104829882141 0.07269556076596616 1.8332757481465396 0.07380345206911128 9.576337173225257 -0.580862779868137 -2.215137452398133 -0.5521558138136522 6.273092547142972" Properties=species:S:1:pos:R:3 unique_starting_index=20 config_type=initial n_minim_iter=17 pbc="T T T"
Si       4.72248784       5.52147651       6.96746102
Si       6.66238474       3.68577719       1.68574010
Si       1.56128299       3.57540041       0.55804449
Si      -0.37861391       5.41109973       5.83976542
Si       5.99177885       6.01727731       5.00901009
Si       6.45031788       3.09222857       3.86152948
Si       0.29199198       3.07959961       2.51649542
Si      -0.16654705       6.00464835       3.66397604
Si       1.83604353       5.54700703       1.89566105
Si       0.70582051       3.59052197       4.84778549
Si       4.44772730       3.54986989       5.62984447
Si       5.57795032       5.50635495       2.67772002
Si       4.08667539       6.11412944       0.91890038
Si       2.19709544       2.98274749       6.60660514
14
Lattice="8.488852978693908 0.0958008351435603 1.9430850972909117 0.09726085431077894 9.56381022329551 -0.6327284286234583 -2.1449213734562953 -0.6091039537204163 6.204548877555225" Properties=species:S:1:pos:R:3 unique_starting_index=20 config_type=initial n_minim_iter=18 pbc="T T T"
Si       4.85594928       5.48718604       6.96027926
Si       6.73504984       3.68253408       1.74682361
Si       1.58524317       3.56332106       0.55462629
Si      -0.29385738       5.36797303       5.76808193
Si       6.10868376       5.99379304       5.02426615
Si       6.54141493       3.08151647       3.92507834
Si       0.33250870       3.05671407       2.49063940
Si      -0.10022247       5.96899064       3.58982721
Si       1.89644527       5.53055600       1.88792751
Si       0.79695646       3.54474187       4.80613827
Si       4.54474719       3.51995111       5.62697803
Si       5.64423600       5.50576523       2.70876728
Si       4.14063553       6.08729390       0.94256783
Si       2.30055693       2.96321321       6.57233772
14
Lattice="8.535638744063737 0.10469884908871445 2.024270226832047 0.10629447532960727 9.559088463868475 -0.6547410326567704 -2.0928498788999303 -0.6328556860020763 6.14771872469979" Properties=species:S:1:pos:R:3 unique_starting_index=20 config_type=initial n_minim_iter=19 pbc="T T T"
Si       4.94940375       5.47343189       6.96026570
Si       6.78448966       3.67794324       1.79809188
Si       1.59967959       3.55749973       0.55698222
Si      -0.23540632       5.35298839       5.71915603
Si       6.19092498       5.98418702       5.04352898
Si       6.60774873       3.07537048       3.97486861
Si       0.35815836       3.04674460       2.47371894
Si      -0.05866539       5.95556114       3.54237931
Si       1.93501918       5.52338043       1.88915866
Si       0.85971517       3.52389462       4.77807808
Si       4.61406416       3.50755120       5.62808925
Si       5.68936817       5.50703701       2.73916984
Si       4.17486887       6.06970562       0.96986332
Si       2.37421447       2.96122601       6.54738460
14
Lattice="8.634852946700931 0.11292507671078644 2.178309684081869 0.11464607190054472 9.57010596835301 -0.6833364805912986 -1.9988562661810112 -0.6621766485342722 6.059516709547553" Properties=species:S:1:pos:R:3 unique_starting_index=20 config_type=initial n_minim_iter=20 pbc="T T T"
Si       5.12503275       5.46533559       6.98773225
Si       6.88141831       3.67320537       1.90149614
Si       1.62561000       3.55551880       0.56675766
Si      -0.13077556       5.34764902       5.65299377
Si       6.34817148       5.98215819       5.10137556
Si       6.73979448       3.06909184       4.08112019
Si       0.40247128       3.03869621       2.45311435
Si       0.01084827       5.95176256       3.47336972
Si       2.00340183       5.52296338       1.90336057
Si       0.97304753       3.50189200       4.74532970
Si       4.74724092       3.49789102       5.65112934
Si       5.77759522       5.51896240       2.80916022
Si       4.23899580       6.04998945       1.03084391
Si       2.51164695       2.97086495       6.52364600
14
Lattice="8.688971393062305 0.10603311263087345 2.392076168148595 0.10764907324925815 9.561109891449052 -0.7110563949753473 -1.829961713737187 -0.6837584855254417 5.861722445580322" Properties=species:S:1:pos:R:3 unique_starting_index=20 config_type=initial n_minim_iter=21 pbc="T T T"
Si       5.32623356       5.43730821       6.96680788
Si       6.94160350       3.64415509       2.03977281
Si       1.64042519       3.54607631       0.57593434
Si       0.02505526       5.33922943       5.50296941
Si       6.51228522       5.96196504       5.14328879
Si       6.86910117       3.04134390       4.21213801
Si       0.45437353       3.02141948       2.39945343
Si       0.09755759       5.94204062       3.33060421
Si       2.07433542       5.50492546       1.91081686
Si       1.13210935       3.46714774       4.65191259
Si       4.89232334       3.47845906       5.63192536
Si       5.83454940       5.51623678       2.89082963
Si       4.27986773       5.99479735       1.12309395
Si       2.68679102       2.98858717       6.41964827
14
Lattice="8.855790099641203 0.10877378539551769 2.439459463717035 0.1104315142799246 9.683438121747411 -0.7207309100406282 -1.8637730990198749 -0.6936589221633099 5.980534626880419" Properties=species:S:1:pos:R:3 unique_starting_index=20 config_type=initial n_minim_iter=22 pbc="T T T"
Si       5.43137652       5.50721459       7.11306560
Si       7.07565439       3.68878385       2.07902994
Si       1.67107200       3.59133839       0.58619758
Si       0.02679413       5.40976913       5.62023324
Si       6.64140768       6.04182338       5.24701485
Si       7.00483935       3.07759626       4.30439909
Si       0.46104084       3.05672961       2.45224833
Si       0.09760916       6.02095672       3.39486409
Si       2.11685638       5.57473675       1.95538491
Si       1.15958970       3.50839893       4.74792920
Si       4.98559214       3.52381624       5.74387827
Si       5.94285881       5.59015405       2.95133398
Si       4.36433685       6.06942675       1.15114372
Si       2.73811167       3.02912624       6.54811947
14
Lattice="8.771056208063909 0.10862200400409183 2.420657903666528 0.11027741971721769 9.625968255644718 -0.7227212042962489 -1.8418245371237307 -0.6953663765766771 5.908549254091875" Properties=species:S:1:pos:R:3 unique_starting_index=20 config_type=initial n_minim_iter=23 pbc="T T T"
Si       5.38368765       5.46801389       7.02988196
Si       7.00832758       3.66718557       2.05733530
Si       1.65582144       3.57120999       0.57660399
Si       0.03118151       5.37203831       5.54915065
Si       6.58274955       6.00306209       5.18540654
Si       6.94162866       3.05725335       4.26081042
Si       0.45675954       3.03616179       2.42107941
Si       0.09788043       5.98197053       3.34567553
Si       2.09834509       5.53909632       1.92904483
Si       1.15328007       3.48322999       4.68944045
Si       4.94116401       3.50012756       5.67744113
Si       5.88622902       5.55599390       2.91704551
Si       4.32412122       6.03045506       1.13752409
Si       2.71538787       3.00876883       6.46896187
14
Lattice="8.773710496803368 0.10935941671068912 2.4250834119794646 0.1110260707046119 9.628681522036997 -0.7248938305610565 -1.8390338815858522 -0.697645851726494 5.901586774032069" Properties=species:S:1:pos:R:3 unique_starting_index=20 config_type=initial n_minim_iter=24 pbc="T T T"
Si       5.38918640       5.46750648       7.02658564
Si       7.01099355       3.66807710       2.05848768
Si       1.65651629       3.57288860       0.57519071
Si       0.03470914       5.37231799       5.54328868
Si       6.58868673       6.00495833       5.18263254
Si       6.94678036       3.05704115       4.26370487
Si       0.45701595       3.03543676       2.41914382
Si       0.09892233       5.98335393       3.33807149
Si       2.10082143       5.53960309       1.92813749
Si       1.15806674       3.48222036       4.68469687
Si       4.94488126       3.50079199       5.67363886
Si       5.88763595       5.55817473       2.91707948
Si       4.32677841       6.03056377       1.13935731
Si       2.71892428       3.00983132       6.46241904
14
Lattice="8.798222233593616 0.11344168730729544 2.4494007616353617 0.11517055572041139 9.647226512156658 -0.7345671378633021 -1.8282680412807149 -0.7081626038797735 5.877126064434179" Properties=species:S:1:pos:R:3 unique_starting_index=20 config_type=initial n_minim_iter=25 pbc="T T T"
Si       5.42301609       5.46941814       7.02198477
Si       7.03342591       3.67503367       2.06775080
Si       1.66210866       3.58308745       0.56997491
Si       0.05169884       5.37747192       5.52420889
Si       6.62581804       6.01842900       5.17796133
Si       6.98043348       3.05862777       4.28349917
Si       0.45930671       3.03407659       2.41399836
Si       0.10469127       5.99387783       3.30846052
Si       2.11570147       5.54571267       1.92755031
Si       1.18233632       3.48036017       4.66953885
Si       4.96942328       3.50679292       5.66440938
Si       5.90278843       5.57214542       2.92242084
Si       4.34532280       6.03554736       1.15042056
Si       2.73980195       3.01695824       6.44153912
