14
Lattice="6.352639567812133 2.1939202665920456 2.7007032769779686e-15 -0.7084089017897792 6.68337283432255 2.0630161326862205e-15 -2.822115333011179 -4.4386465504573 5.825880605769631" Properties=species:S:1:pos:R:3 unique_starting_index=174 config_type=initial n_minim_iter=1 energy=-2275.688157986193 free_energy=-2275.688157986193 pbc="T T T"
Si       0.84815462       0.85408545       3.75140590
Si       3.23569942       5.56903428       2.07447471
Si      -0.84815463      -0.85408545       3.75140590
Si       2.40853124       3.30825881       2.07447471
Si      -1.20235908       2.48760097       4.98741501
Si      -0.76778854       2.21129868       0.83846559
Si       0.49395017       4.19577186       4.98741501
Si       0.05937963       4.47207415       0.83846559
Si       1.31896873       2.07448503       5.82588060
Si       1.50314660       2.36416151      -0.00000000
Si      -1.67317319       1.26720138       2.91294030
Si       0.96476428       5.41617145       2.91294030
Si      -0.35420445       3.34168642       2.91294030
Si      -0.00000000      -0.00000000       5.82588060
14
Lattice="6.171409563100664 1.9328551839996646 2.5924383352017313e-15 -0.8679284722872527 6.40850414097064 2.007707980896078e-15 -2.6517405454067067 -4.170679662485152 5.705945441899141" Properties=species:S:1:pos:R:3 unique_starting_index=174 config_type=initial n_minim_iter=2 stress="-0.023954668550791827 -0.00898210427674531 1.9189108744362494e-16 -0.00898210427674531 -0.032370926951168555 3.1337442709126503e-16 1.9189108744362494e-16 3.1337442709126503e-16 -0.012932533722346727" pbc="T T T"
Si       0.80871033       0.83371063       3.64841869
Si       3.06360853       5.25670479       2.05752675
Si      -0.80871033      -0.83371063       3.64841869
Si       2.23987256       3.08465453       2.05752675
Si      -1.24267457       2.37054144       4.91049947
Si      -0.84583222       2.11822694       0.79544597
Si       0.37474609       4.03796270       4.91049947
Si      -0.02209626       4.29027720       0.79544597
Si       1.25490366       1.97372295       5.70594544
Si       1.39683688       2.19695671      -0.00000000
Si      -1.68886790       1.23052912       2.85297272
Si       0.82093942       5.17797502       2.85297272
Si      -0.43396424       3.20425207       2.85297272
Si      -0.00000000      -0.00000000       5.70594544
14
Lattice="6.243807498786749 1.697507023116649 3.690182645470617e-15 -1.1117616955909964 6.374217450609342 2.184596482083354e-15 -2.5660229015978775 -4.035862236862997 5.646978607781666" Properties=species:S:1:pos:R:3 unique_starting_index=174 config_type=initial n_minim_iter=3 stress="-0.01198952382883962 -0.012614881638039546 1.715947819604024e-16 -0.012614881638039546 -0.02380970541265683 1.2438805981879482e-16 1.715947819604024e-16 1.2438805981879482e-16 -0.01690935431239258" pbc="T T T"
Si       0.79467881       0.89265377       3.54816131
Si       3.03721943       5.13418777       2.09881729
Si      -0.79467881      -0.89265377       3.54816131
Si       2.09482637       2.93753670       2.09881729
Si      -1.35055966       2.29445496       4.92230660
Si      -1.02707738       2.08878319       0.72467201
Si       0.23879796       4.07976249       4.92230660
Si      -0.08468432       4.28543426       0.72467201
Si       1.25381244       1.97200668       5.64697861
Si       1.31221045       2.06385555      -0.00000000
Si      -1.80969330       1.21510204       2.82348930
Si       0.69793160       5.15911541       2.82348930
Si      -0.55588085       3.18710872       2.82348930
Si      -0.00000000      -0.00000000       5.64697861
14
Lattice="6.262959459262968 1.7554962557129519 3.742846469725123e-15 -1.0673750197442822 6.416162315544985 2.426512986272973e-15 -2.5977922197593437 -4.08582928562897 5.767518476269288" Properties=species:S:1:pos:R:3 unique_starting_index=174 config_type=initial n_minim_iter=4 stress="-0.0077896329714928205 -0.0009359867810845634 1.0739312321101812e-16 -0.0009359867810845634 -0.00866665536693964 8.164080006505845e-17 1.0739312321101812e-16 8.164080006505845e-17 0.012864756497722103" pbc="T T T"
Si       0.80234328       0.93571621       3.60016761
Si       3.10473210       5.20936456       2.16735086
Si      -0.80234328      -0.93571621       3.60016761
Si       2.09085233       2.96229401       2.16735086
Si      -1.33603079       2.27236495       5.05111010
Si      -1.04062740       2.08454588       0.71640838
Si       0.26865577       4.14379737       5.05111010
Si      -0.02674763       4.33161643       0.71640838
Si       1.28582136       2.02235058       5.76751848
Si       1.31197085       2.06347871      -0.00000000
Si      -1.81950888       1.18573058       2.88375924
Si       0.75213385       5.23043173       2.88375924
Si      -0.53368751       3.20808116       2.88375924
Si      -0.00000000      -0.00000000       5.76751848
14
Lattice="6.319853623674946 1.7705436898596503 3.587591152595801e-15 -1.0778861981440606 6.474066428932416 2.315605350716503e-15 -2.6209837127654443 -4.122305059396034 5.661732465634328" Properties=species:S:1:pos:R:3 unique_starting_index=174 config_type=initial n_minim_iter=5 stress="-0.000883751377476372 0.00013487435845644855 1.489201006500033e-16 0.00013487435845644855 -0.0007573737027822282 1.1974280794073485e-16 1.489201006500033e-16 1.1974280794073485e-16 0.002071106518680935" pbc="T T T"
Si       0.81170025       0.97474762       3.51123897
Si       3.15929862       5.27087255       2.15049349
Si      -0.81170026      -0.97474762       3.51123897
Si       2.08266880       2.97373757       2.15049349
Si      -1.35064336       2.26228559       4.98135973
Si      -1.07725801       2.08846572       0.68037274
Si       0.27275715       4.21178083       4.98135973
Si      -0.00062819       4.38560071       0.68037274
Si       1.31528235       2.06868706       5.66173246
Si       1.30570135       2.05361799      -0.00000000
Si      -1.85422546       1.16834615       2.83086623
Si       0.77633925       5.30572028       2.83086623
Si      -0.53894310       3.23703321       2.83086623
Si      -0.00000000      -0.00000000       5.66173246
14
Lattice="6.337733380634791 1.6961972510576548 3.634503859191238e-15 -1.1527957495189978 6.45871593108096 2.5816124852947446e-15 -2.5924688155579 -4.077456591069307 5.598391224639484" Properties=species:S:1:pos:R:3 unique_starting_index=174 config_type=initial n_minim_iter=6 stress="-0.005872051046231288 -0.0002746677026077142 7.328759121631635e-17 -0.0002746677026077142 -0.006129415499833102 1.5038983623411288e-16 7.328759121631635e-17 1.5038983623411288e-16 -0.003309524914827216" pbc="T T T"
Si       0.81151070       1.02139749       3.42469519
Si       3.17310771       5.24564361       2.17369603
Si      -0.81151071      -1.02139749       3.42469519
Si       2.01182992       2.90926957       2.17369603
Si      -1.38790858       2.20796048       4.97289164
Si      -1.15703677       2.06117094       0.62549958
Si       0.23511283       4.25075545       4.97289164
Si       0.00424102       4.39754499       0.62549958
Si       1.33812485       2.10461394       5.59839122
Si       1.25434396       1.97284265      -0.00000000
Si      -1.91452274       1.12474402       2.79919561
Si       0.76172698       5.33397191       2.79919561
Si      -0.57639788       3.22935796       2.79919561
Si      -0.00000000      -0.00000000       5.59839122
14
Lattice="6.410106505555637 1.6620531820245912 3.938154468438061e-15 -1.2144190066298222 6.509767481929062 3.1333535977228556e-15 -2.5978437494629105 -4.085910331976826 5.581996324436251" Properties=species:S:1:pos:R:3 unique_starting_index=174 config_type=initial n_minim_iter=7 stress="0.005419853064398395 -0.0005992005225494651 3.9355447968280394e-17 -0.0005992005225494651 0.004858400394062625 1.3059757318571602e-16 3.9355447968280394e-17 1.3059757318571602e-16 0.0021205555364206207" pbc="T T T"
Si       0.82282334       1.04242079       3.39340341
Si       3.19272081       5.27326059       2.18859292
Si      -0.82282335      -1.04242079       3.39340341
Si       2.00296668       2.89856007       2.18859292
Si      -1.43003285       2.21246295       4.97959108
Si      -1.20208657       2.06753348       0.60240524
Si       0.21561384       4.29730453       4.97959108
Si      -0.01233244       4.44223400       0.60240524
Si       1.36065524       2.14004992       5.58199632
Si       1.23718850       1.94586041      -0.00000000
Si      -1.96786475       1.11483382       2.79099816
Si       0.75344573       5.39493366       2.79099816
Si      -0.60720951       3.25488374       2.79099816
Si      -0.00000000      -0.00000000       5.58199632
14
Lattice="6.385792787583762 1.7814095020858236 3.729457927240074e-15 -1.09602136035253 6.538387149575148 3.563935236082617e-15 -2.64488571361562 -4.159898325830486 5.473018572961317" Properties=species:S:1:pos:R:3 unique_starting_index=174 config_type=initial n_minim_iter=8 stress="-0.000502675540699209 0.004284404015184176 1.9184968501846342e-16 0.004284404015184176 0.003511823753943888 1.566475087472144e-16 1.9184968501846342e-16 1.566475087472144e-16 -0.001001244183733788" pbc="T T T"
Si       0.86793066       1.03609285       3.31963409
Si       3.21489579       5.38541068       2.15338448
Si      -0.86793067      -1.03609285       3.31963409
Si       2.07487563       2.93438597       2.15338448
Si      -1.41594135       2.23310072       4.88989377
Si      -1.11802077       2.04368121       0.58312480
Si       0.31991998       4.30528642       4.88989377
Si       0.02199940       4.49470593       0.58312480
Si       1.41237810       2.22140006       5.47301857
Si       1.23250761       1.93849826      -0.00000000
Si      -1.96038878       1.04779351       2.73650929
Si       0.86436742       5.49059364       2.73650929
Si      -0.54801068       3.26919357       2.73650929
Si      -0.00000000      -0.00000000       5.47301857
14
Lattice="6.394983065511575 1.7046303181085263 3.5751911536811786e-15 -1.1694473669615801 6.514135843341094 3.2208928915981616e-15 -2.6127678492750017 -4.10938308072481 5.478848950925992" Properties=species:S:1:pos:R:3 unique_starting_index=174 config_type=initial n_minim_iter=9 stress="-0.0004334131995356302 0.003303976908066307 1.0655305399848995e-17 0.003303976908066307 0.0026624229820994 1.0816331798675847e-16 1.0655305399848995e-17 1.0816331798675847e-16 -0.0009772246402951728" pbc="T T T"
Si       0.86900018       1.02869657       3.31353793
Si       3.17562652       5.33272607       2.16531101
Si      -0.86900018      -1.02869658       3.31353793
Si       2.04990917       2.88604009       2.16531101
Si      -1.45372387       2.22837134       4.90473549
Si      -1.14758237       2.03372493       0.57411346
Si       0.28427649       4.28576450       4.90473549
Si      -0.02186501       4.48041091       0.57411346
Si       1.40741662       2.21359662       5.47884895
Si       1.20535122       1.89578646      -0.00000000
Si      -1.99214031       1.04347130       2.73942447
Si       0.82269294       5.47066454       2.73942447
Si      -0.58472369       3.25706792       2.73942447
Si      -0.00000000      -0.00000000       5.47884895
14
Lattice="6.41977419526639 1.4870865656664787 4.037008022068412e-15 -1.3769607328134774 6.444292537764224 2.8562714043137643e-15 -2.521406731226461 -3.9656895517153523 5.549552460522408" Properties=species:S:1:pos:R:3 unique_starting_index=174 config_type=initial n_minim_iter=10 stress="0.0032633973824476646 -0.0013946797567242846 -6.703009823228454e-17 -0.0013946797567242846 0.001956578305680181 -4.0835048297461775e-17 -6.703009823228454e-17 -4.0835048297461775e-17 -0.0030879210610962036" pbc="T T T"
Si       0.86602121       0.97228083       3.35907530
Si       3.03444221       5.16240061       2.19047716
Si      -0.86602122      -0.97228083       3.35907530
Si       2.00837125       2.76897849       2.19047716
Si      -1.55450159       2.24986544       4.96525339
Si      -1.20151585       2.02543521       0.58429907
Si       0.17754085       4.19442709       4.96525339
Si      -0.17544489       4.41885732       0.58429907
Si       1.36785006       2.15136600       5.54955246
Si       1.15355666       1.81432355      -0.00000000
Si      -2.05633044       1.07078027       2.77477623
Si       0.67936970       5.37351227       2.77477623
Si      -0.68848037       3.22214627       2.77477623
Si      -0.00000000      -0.00000000       5.54955246
14
Lattice="6.417339184078711 1.3395487886600523 3.994569560246909e-15 -1.509529836451734 6.379494716164798 2.667748169505264e-15 -2.4539046738134926 -3.859521752412425 5.641480938412258" Properties=species:S:1:pos:R:3 unique_starting_index=174 config_type=initial n_minim_iter=11 stress="0.00281183139231605 -0.005093138157294116 6.868641704987449e-17 -0.005093138157294116 -0.001960454196884474 -1.3713663842813478e-16 6.868641704987449e-17 -1.3713663842813478e-16 -0.0037421222031629457" pbc="T T T"
Si       0.86622000       0.90907608       3.43381359
Si       2.90962105       5.02959824       2.20766735
Si      -0.86622000      -0.90907608       3.43381359
Si       1.99818829       2.68944526       2.20766735
Si      -1.62098492       2.28067128       5.02840781
Si      -1.21048130       2.01967087       0.61307312
Si       0.11145508       4.09882344       5.02840781
Si      -0.29904855       4.35982385       0.61307312
Si       1.32912701       2.09046206       5.64148094
Si       1.12477766       1.76905969      -0.00000000
Si      -2.08389193       1.09928530       2.82074047
Si       0.57436209       5.28020941       2.82074047
Si      -0.75476492       3.18974736       2.82074047
Si      -0.00000000      -0.00000000       5.64148094
14
Lattice="6.394155503414377 1.4103167112763386 4.840494021858536e-15 -1.4356106076837591 6.388524087068586 2.403654119202811e-15 -2.479272447865314 -3.899420399172462 5.642210679732302" Properties=species:S:1:pos:R:3 unique_starting_index=174 config_type=initial n_minim_iter=12 stress="-0.0018446663976010116 0.0014304883854682367 -1.243439668120164e-16 0.0014304883854682367 -0.0005042945292841502 -6.557289613478347e-17 -1.243439668120164e-16 -6.557289613478347e-17 -0.0007777930873994511" pbc="T T T"
Si       0.87521710       0.90982136       3.44223183
Si       2.93184670       5.07796036       2.19997885
Si      -0.87521711      -0.90982137       3.44223183
Si       2.02669819       2.72088044       2.19997885
Si      -1.59302241       2.28444068       5.02108419
Si      -1.17037956       2.01572208       0.62112649
Si       0.15741180       4.10408341       5.02108419
Si      -0.26523105       4.37280200       0.62112649
Si       1.34154860       2.10999884       5.64221068
Si       1.13772384       1.78942156      -0.00000000
Si      -2.05935391       1.08426320       2.82110534
Si       0.62374330       5.30426088       2.82110534
Si      -0.71780531       3.19426204       2.82110534
Si      -0.00000000      -0.00000000       5.64221068
14
Lattice="6.396925609377989 1.3969924670403304 5.410063674323476e-15 -1.448851531486927 6.3853797416121925 3.1856293601582583e-15 -2.4740370389455353 -3.891186104326261 5.663183643271767" Properties=species:S:1:pos:R:3 unique_starting_index=174 config_type=initial n_minim_iter=13 stress="0.00015606594734972698 0.00010493042277438156 -2.2839278941072313e-17 0.00010493042277438156 0.0002543860653224313 -7.042200320450765e-17 -2.2839278941072313e-17 -7.042200320450765e-17 0.00035704699450139825" pbc="T T T"
Si       0.87079213       0.91037896       3.45851207
Si       2.92899351       5.06595561       2.20467157
Si      -0.87079214      -0.91037896       3.45851207
Si       2.01908056       2.71641659       2.20467157
Si      -1.59521790       2.28231091       5.03626340
Si      -1.17938224       2.01792036       0.62692024
Si       0.14636637       4.10306883       5.03626340
Si      -0.26946930       4.36745938       0.62692024
Si       1.33596020       2.10120936       5.66318364
Si       1.13807683       1.78997674      -0.00000000
Si      -2.06038597       1.09148051       2.83159182
Si       0.61153444       5.29389923       2.83159182
Si      -0.72442577       3.19268987       2.83159182
Si      -0.00000000      -0.00000000       5.66318364
14
Lattice="6.386447209616725 1.3107257838489939 5.589791287555864e-15 -1.5225244753384246 6.339292489202817 3.922100586213299e-15 -2.431961367139154 -3.8250091365259062 5.757270077419433" Properties=species:S:1:pos:R:3 unique_starting_index=174 config_type=initial n_minim_iter=14 stress="0.002377653655228401 -0.004299588643040894 -3.0566385041831877e-17 -0.004299588643040894 -0.0016510736808414666 -2.0574769632056135e-16 -3.0566385041831877e-17 -2.0574769632056135e-16 0.0016817775334860082" pbc="T T T"
Si       0.86523063       0.90281511       3.53663105
Si       2.88242789       4.99153350       2.22063903
Si      -0.86523064      -0.90281512       3.53663105
Si       1.98149484       2.65848477       2.22063903
Si      -1.62649288       2.26683113       5.09927407
Si      -1.21172877       2.00312188       0.65799601
Si       0.10396840       4.07246136       5.09927407
Si      -0.31079571       4.33617061       0.65799601
Si       1.31714448       2.07161584       5.75727008
Si       1.11481688       1.75339330      -0.00000000
Si      -2.07840672       1.09803041       2.87863504
Si       0.55588224       5.24126208       2.87863504
Si      -0.76126224       3.16964624       2.87863504
Si      -0.00000000      -0.00000000       5.75727008
14
Lattice="6.342804344595265 1.2987564401044702 6.3897402118604885e-15 -1.51484780169833 6.29469390695204 3.882107092192224e-15 -2.413978271448471 -3.7967251735282552 5.9170312096851125" Properties=species:S:1:pos:R:3 unique_starting_index=174 config_type=initial n_minim_iter=15 stress="0.009218016844314475 -0.0008965579034526029 6.607170657690974e-17 -0.0008965579034526029 0.008377939424383926 -1.6641910531616193e-16 6.607170657690974e-17 -1.6641910531616193e-16 0.005805608449786617" pbc="T T T"
Si       0.89177873       0.93727048       3.70981346
Si       2.88438268       5.00190771       2.20721775
Si      -0.89177873      -0.93727048       3.70981346
Si       1.94357386       2.59154264       2.20721775
Si      -1.64920263       2.21007648       5.16573335
Si      -1.22782831       1.94216442       0.75129785
Si       0.13435483       4.08461743       5.16573335
Si      -0.28701949       4.35252949       0.75129785
Si       1.34077782       2.10878655       5.91703121
Si       1.07320045       1.68793862      -0.00000000
Si      -2.09820173       1.03856040       2.95851560
Si       0.58335392       5.25613350       2.95851560
Si      -0.75742390       3.14734695       2.95851560
Si      -0.00000000      -0.00000000       5.91703121
14
Lattice="6.294957198264685 1.251961547100291 6.548386140810601e-15 -1.5369235803814414 6.231513439885178 4.386437896297431e-15 -2.3790168089416244 -3.7417374934927348 5.959611708273317" Properties=species:S:1:pos:R:3 unique_starting_index=174 config_type=initial n_minim_iter=16 stress="0.0025849044234661266 8.344708338383631e-05 2.520102632634152e-17 8.344708338383631e-05 0.002663094588585162 -1.3257592754969091e-17 2.520102632634152e-17 -1.3257592754969091e-17 0.00033062114208761627" pbc="T T T"
Si       0.90623895       0.92058188       3.76148034
Si       2.82817419       4.95293429       2.19813137
Si      -0.90623896      -0.92058188       3.76148034
Si       1.92985942       2.53054070       2.19813137
Si      -1.67470075       2.19517484       5.17793722
Si      -1.21761918       1.90455992       0.78167448
Si       0.13777716       4.03633860       5.17793722
Si      -0.31930441       4.32695351       0.78167448
Si       1.33917467       2.10626511       5.95961171
Si       1.03984213       1.63547238      -0.00000000
Si      -2.10763647       1.00949161       2.97980585
Si       0.57071288       5.22202183       2.97980585
Si      -0.76846179       3.11575672       2.97980585
Si      -0.00000000      -0.00000000       5.95961171
14
Lattice="6.276243762281435 1.2340829188854427 7.533046738166412e-15 -1.5451743265967472 6.206982577282439 4.676485463634322e-15 -2.365534717842347 -3.720532748083939 5.97808924730168" Properties=species:S:1:pos:R:3 unique_starting_index=174 config_type=initial n_minim_iter=17 stress="9.25979523602661e-05 0.00012848839344480246 1.164232444095967e-16 0.00012848839344480246 0.00021299195886074316 -2.9562759314901004e-17 1.164232444095967e-16 -2.9562759314901004e-17 -0.0009263449236345677" pbc="T T T"
Si       0.90666613       0.91857495       3.77735643
Si       2.81269350       4.93126493       2.20073281
Si      -0.90666613      -0.91857495       3.77735643
Si       1.91837592       2.50980056       2.20073281
Si      -1.67925330       2.18491634       5.18977744
Si      -1.21974596       1.89275910       0.78831181
Si       0.13407896       4.02206624       5.18977744
Si      -0.32542838       4.31422347       0.78831181
Si       1.33699019       2.10282933       5.97808925
Si       1.02854452       1.61770341      -0.00000000
Si      -2.10957736       1.00066195       2.98904462
Si       0.56440303       5.20632062       2.98904462
Si      -0.77258717       3.10349129       2.98904462
Si      -0.00000000      -0.00000000       5.97808925
14
Lattice="6.265916364051213 1.2142275336263957 7.263863630989568e-15 -1.5587728872676292 6.189207014684558 5.535756123091512e-15 -2.3535717383917945 -3.701717274155475 6.008421670464976" Properties=species:S:1:pos:R:3 unique_starting_index=174 config_type=initial n_minim_iter=18 stress="0.00015121473076504537 -0.00023833144467338795 5.239081265997033e-17 -0.00023833144467338795 -7.210254116889149e-05 1.0137721031396371e-17 5.239081265997033e-17 1.0137721031396371e-17 -0.00054092200088072" pbc="T T T"
Si       0.90663352       0.91516698       3.80331913
Si       2.79765829       4.91097410       2.20510254
Si      -0.90663353      -0.91516698       3.80331913
Si       1.90948518       2.49246044       2.20510254
Si      -1.68601997       2.17943652       5.20931338
Si      -1.22347300       1.88534668       0.79910829
Si       0.12724708       4.00977049       5.20931338
Si      -0.33529989       4.30386034       0.79910829
Si       1.33361796       2.09752546       6.00842167
Si       1.01995378       1.60419182      -0.00000000
Si      -2.11300441       0.99707805       3.00421083
Si       0.55423151       5.19212896       3.00421083
Si      -0.77938645       3.09460351       3.00421083
Si      -0.00000000      -0.00000000       6.00842167
14
Lattice="6.263799372378516 1.2145220808886075 7.981034082542848e-15 -1.5576080289728476 6.187414944098608 6.154795975666389e-15 -2.3530956717028366 -3.7009685124936045 6.010830060823475" Properties=species:S:1:pos:R:3 unique_starting_index=174 config_type=initial n_minim_iter=19 stress="-0.0002628574262349594 -4.6844529935840856e-05 1.484897228944641e-16 -4.6844529935840856e-05 -0.0003067508899975228 6.739009544873562e-17 1.484897228944641e-16 6.739009544873562e-17 -0.0001299302730915803" pbc="T T T"
Si       0.90519492       0.91603403       3.80319666
Si       2.79857770       4.90929047       2.20763340
Si      -0.90519493      -0.91603403       3.80319666
Si       1.90761364       2.49264655       2.20763340
Si      -1.68399894       2.17767344       5.21304843
Si      -1.22428605       1.88538551       0.79778163
Si       0.12639091       4.00974150       5.21304843
Si      -0.33332199       4.30202943       0.79778163
Si       1.33379424       2.09780272       6.01083006
Si       1.01930142       1.60316579      -0.00000000
Si      -2.11259826       0.99590475       3.00541503
Si       0.55499023       5.19151019       3.00541503
Si      -0.77880402       3.09370747       3.00541503
Si      -0.00000000      -0.00000000       6.01083006
14
Lattice="6.264752760839322 1.2144956795568764 8.892742753532807e-15 -1.5580364110278302 6.188267079887361 7.210077075108802e-15 -2.35335817490575 -3.701381379722116 6.014793313799323" Properties=species:S:1:pos:R:3 unique_starting_index=174 config_type=initial n_minim_iter=20 stress="-1.4054769126620368e-05 0.0002801021188074772 1.3725299465872427e-16 0.0002801021188074772 0.00024840174860487257 1.0902945803635468e-16 1.3725299465872427e-16 1.0902945803635468e-16 0.0008860293044017484" pbc="T T T"
Si       0.90328032       0.91593857       3.80463318
Si       2.79956603       4.90792908       2.21016013
Si      -0.90328032      -0.91593857       3.80463318
Si       1.90715032       2.49483368       2.21016013
Si      -1.68229853       2.17819497       5.21755679
Si      -1.22522606       1.88758584       0.79723652
Si       0.12426211       4.01007211       5.21755679
Si      -0.33281035       4.30068124       0.79723652
Si       1.33503566       2.09975524       6.01479331
Si       1.01832250       1.60162614      -0.00000000
Si      -2.11405388       0.99437830       3.00739666
Si       0.55601746       5.19388878       3.00739666
Si      -0.77901821       3.09413354       3.00739666
Si      -0.00000000      -0.00000000       6.01479331
14
Lattice="6.265838766931109 1.2090515076154946 8.902812326147887e-15 -1.563427093293476 6.186940821213651 7.82423892020362e-15 -2.351205836818821 -3.697996164414569 6.010651081663711" Properties=species:S:1:pos:R:3 unique_starting_index=174 config_type=initial n_minim_iter=21 stress="0.00015125687045946916 -2.6319164379379256e-05 1.0577817795393521e-16 -2.6319164379379256e-05 0.00012659573521998116 2.38705171785549e-16 1.0577817795393521e-16 2.38705171785549e-16 0.00017696987784083973" pbc="T T T"
Si       0.90135494       0.91422119       3.80401653
Si       2.79667536       4.90207175       2.20663455
Si      -0.90135495      -0.91422119       3.80401653
Si       1.90573630       2.49392058       2.20663455
Si      -1.68306849       2.17924922       5.21196009
Si      -1.22718308       1.88939483       0.79869099
Si       0.11964139       4.00769160       5.21196009
Si      -0.33624402       4.29754599       0.79869099
Si       1.33555462       2.10057145       6.01065108
Si       1.01565121       1.59742471      -0.00000000
Si      -2.11726817       0.99289895       3.00532554
Si       0.55384107       5.19404186       3.00532554
Si      -0.78171355       3.09347041       3.00532554
Si      -0.00000000      -0.00000000       6.01065108
