14
Lattice="7.5249252339025565 1.0304863647803915 -1.543425534509776 0.05914633931809943 5.460106531006721 0.6028362311995652 -5.65330994011918 -2.3905542600016676 8.750056762692793" Properties=species:S:1:pos:R:3 unique_starting_index=128 config_type=initial n_minim_iter=1 energy=-2276.2767452786698 free_energy=-2276.2767452786698 pbc="T T T"
Si      -5.67365099      -2.18411122       8.09333780
Si       2.62938078       1.70815532       7.11237781
Si      -1.14367652       3.28768341       5.92224199
Si       3.09528490       1.57610836       2.03347541
Si       0.15349089       3.14543195       8.54474287
Si       0.30487977       1.91178179       2.00850123
Si       1.82322686       3.32966445       3.02444562
Si      -1.12644979      -0.52938623       6.99924489
Si       3.65502482       4.69830285       0.31724486
Si      -0.08722963       0.66546494       4.09053975
Si       1.74369729       5.34394776       1.71429078
Si       0.19977227       1.39155145       6.53769542
Si       0.86508584      -1.41263828       4.44131994
Si       3.02311236       2.50963093      -0.09680395
14
Lattice="7.466870207349483 1.076316762642764 -1.5147482364635678 0.08777228244184092 5.52818474321759 0.6167461504250173 -5.617367931730656 -2.412254570049022 8.606562998771349" Properties=species:S:1:pos:R:3 unique_starting_index=128 config_type=initial n_minim_iter=2 stress="-0.0022955873779038002 0.0014100189946700307 0.0028092028854704004 0.0014100189946700307 0.0017868292505613245 0.0009894238231152972 0.0028092028854704004 0.0009894238231152972 -0.005435578442241018" pbc="T T T"
Si      -5.62891413      -2.21204382       7.96591140
Si       2.60764707       1.77253149       7.00926385
Si      -1.11711937       3.34537819       5.84147437
Si       3.08313892       1.61782348       2.01077958
Si       0.17046222       3.22063681       8.42860619
Si       0.31072416       1.94089154       1.98565637
Si       1.82525904       3.40106303       2.99512335
Si      -1.12316284      -0.50932435       6.89560265
Si       3.65036431       4.77821604       0.33054104
Si      -0.08273877       0.69388541       4.03315082
Si       1.75959326       5.42286803       1.71413237
Si       0.20615291       1.43736885       6.44225781
Si       0.84994607      -1.40832861       4.36375857
Si       3.01371418       2.55123700      -0.08636038
14
Lattice="7.484493721405274 1.0802985430386287 -1.5977412413798238 0.08144123431158116 5.5553581228329545 0.6216761013613465 -5.706715229345301 -2.4198306933926452 8.707121479584071" Properties=species:S:1:pos:R:3 unique_starting_index=128 config_type=initial n_minim_iter=3 stress="0.0028626884504384543 0.0008677836044454154 -0.0006579046799574891 0.0008677836044454154 0.006831475351155358 0.001211915179727005 -0.0006579046799574891 0.001211915179727005 0.0012141142724363498" pbc="T T T"
Si      -5.69883782      -2.22982027       8.07246628
Si       2.52063004       1.78572815       7.01511633
Si      -1.18028902       3.36477582       5.87747037
Si       3.07213581       1.62143685       1.99541949
Si       0.08525765       3.24141646       8.47363030
Si       0.28780806       1.94599655       1.99449366
Si       1.79489927       3.43201628       2.99475359
Si      -1.19926765      -0.50356554       6.94810880
Si       3.64955782       4.80323920       0.29259285
Si      -0.12438589       0.70397138       4.05889891
Si       1.74652453       5.44821984       1.71395163
Si       0.13956509       1.44616413       6.47041753
Si       0.80290773      -1.41587933       4.37000269
Si       3.02018117       2.56042457      -0.11955684
14
Lattice="7.445057964802794 1.0640071931591193 -1.6513620733718242 0.06988349107336547 5.5054342321834975 0.6120821979231549 -5.72709527761194 -2.4060354803292765 8.751279653015551" Properties=species:S:1:pos:R:3 unique_starting_index=128 config_type=initial n_minim_iter=4 stress="-0.0027964208408711192 -5.074654223737429e-05 -0.003427619249708618 -5.074654223737429e-05 -0.002813861027776299 0.0005133483050699142 -0.003427619249708618 0.0005133483050699142 -0.0013971597353263836" pbc="T T T"
Si      -5.70168974      -2.22964245       8.12572664
Si       2.43563153       1.75706943       6.99059375
Si      -1.22091193       3.32826142       5.87312882
Si       3.04481403       1.59526521       1.97723242
Si       0.02243400       3.20041759       8.46958059
Si       0.26733015       1.92005975       1.99031119
Si       1.75800710       3.40778535       2.97715290
Si      -1.24461720      -0.50369385       6.96285974
Si       3.61877343       4.75711939       0.25392290
Si      -0.15308367       0.69579251       4.06284415
Si       1.72197813       5.39378870       1.69985916
Si       0.08984824       1.42070967       6.46302423
Si       0.76480898      -1.41399798       4.35987666
Si       3.00248189       2.53228774      -0.14748710
14
Lattice="7.4456367271131825 1.059289648245818 -1.614087030333563 0.06612124283085112 5.494273872601855 0.5883959787714168 -5.675411379053438 -2.437378196578998 8.765828371715017" Properties=species:S:1:pos:R:3 unique_starting_index=128 config_type=initial n_minim_iter=5 stress="2.454169774836529e-05 -0.0013423814490728541 0.00016502908823454887 -0.0013423814490728541 -8.869635641230775e-05 -0.0014169053722751948 0.00016502908823454887 -0.0014169053722751948 0.0021413635302306314" pbc="T T T"
Si      -5.63173282      -2.28488589       8.15200428
Si       2.45530335       1.71894908       7.02386005
Si      -1.19637432       3.30104913       5.86247198
Si       3.07892760       1.57274773       2.01195702
Si       0.07722974       3.15739777       8.49643345
Si       0.27414193       1.89860372       1.99305749
Si       1.77859505       3.40520602       2.98637969
Si      -1.20891740      -0.52586584       6.99591354
Si       3.62078491       4.74552723       0.24587357
Si      -0.12825581       0.68272339       4.08353782
Si       1.74227093       5.37350372       1.70559857
Si       0.12468705       1.38268219       6.47787461
Si       0.78842934      -1.43815280       4.38032690
Si       3.00819084       2.52198518      -0.14258033
14
Lattice="7.473881142202185 1.0872471248956181 -1.6118366339359624 0.0908840304846166 5.491724165576744 0.6065586381543666 -5.7098927883835024 -2.4292533739139177 8.737138742093318" Properties=species:S:1:pos:R:3 unique_starting_index=128 config_type=initial n_minim_iter=6 stress="0.002254670418501706 0.00046825045878283504 0.00023975137233417528 0.00046825045878283504 -0.0011388143661987358 0.0009962393377671095 0.00023975137233417528 0.0009962393377671095 0.0014994244545455434" pbc="T T T"
Si      -5.64989216      -2.30202505       8.13313334
Si       2.44827177       1.75561374       7.00479331
Si      -1.19546721       3.31842287       5.84993493
Si       3.10802966       1.59325470       2.01809723
Si       0.08768767       3.19180321       8.48492092
Si       0.28080204       1.90185926       1.99477508
Si       1.80100159       3.42974000       2.98595670
Si      -1.22338052      -0.50188455       6.97536206
Si       3.65240745       4.76081710       0.25113587
Si      -0.12889130       0.70155506       4.07833762
Si       1.78345868       5.38427833       1.72856707
Si       0.11815613       1.40453393       6.45629293
Si       0.77405857      -1.41684634       4.35801431
Si       3.02506051       2.53160244      -0.13019559
14
Lattice="7.44253077519926 1.1596011972280538 -1.6331976818311675 0.12896578151766414 5.557016229633924 0.5893990420456252 -5.738266002840446 -2.5158680358416072 8.659313044110027" Properties=species:S:1:pos:R:3 unique_starting_index=128 config_type=initial n_minim_iter=7 stress="0.003188154518930201 0.0016712448036629937 0.0003450437269043766 0.0016712448036629937 0.0004305406504215329 0.000828105001727943 0.0003450437269043766 0.000828105001727943 -0.003586030737743221" pbc="T T T"
Si      -5.61824929      -2.48807979       8.08582126
Si       2.34577759       1.78495633       6.88733878
Si      -1.21959929       3.36143166       5.74100620
Si       3.14682998       1.63554377       2.00806017
Si       0.07470644       3.24073911       8.37351840
Si       0.28350192       1.91488944       1.96833217
Si       1.81563333       3.49575796       2.91863325
Si      -1.26769354      -0.51847735       6.88618545
Si       3.66029990       4.85293391       0.18609089
Si      -0.14653842       0.72233993       4.03878502
Si       1.86213929       5.47470932       1.72638918
Si       0.05478599       1.40571720       6.33470685
Si       0.70719975      -1.43360050       4.29078516
Si       2.99993443       2.58068324      -0.12164365
14
Lattice="7.326234609675459 1.2071329510678885 -1.634641037380765 0.1590765780148082 5.615592020266726 0.6121816156505779 -5.6605397424336745 -2.539146157335129 8.678552665246388" Properties=species:S:1:pos:R:3 unique_starting_index=128 config_type=initial n_minim_iter=8 stress="0.0015603929649515564 0.001049477737357046 0.001406111219039823 0.001049477737357046 -0.0009865071633919501 0.002539566300602049 0.001406111219039823 0.002539566300602049 -0.0016621411387104637" pbc="T T T"
Si      -5.49742673      -2.62362654       8.11421143
Si       2.26743116       1.84185160       6.91162053
Si      -1.20802446       3.43599173       5.74319295
Si       3.16029760       1.69028507       2.05723262
Si       0.09671695       3.33485889       8.41579128
Si       0.29721891       1.94327541       1.98699686
Si       1.82287594       3.54682117       2.92524182
Si      -1.25943446      -0.49833594       6.89291273
Si       3.62045374       4.92816540       0.16954292
Si      -0.14319740       0.75824322       4.06030204
Si       1.92822694       5.57291379       1.79151741
Si       0.01283646       1.44172523       6.32491184
Si       0.65957246      -1.41925478       4.29987068
Si       2.92890767       2.62316748      -0.07802154
14
Lattice="7.281271787131417 1.2442893098716195 -1.659446568491387 0.17449311208451324 5.651000453252533 0.5909506305703501 -5.650756517706475 -2.6085851058401897 8.713376159639015" Properties=species:S:1:pos:R:3 unique_starting_index=128 config_type=initial n_minim_iter=9 stress="0.0009787853154596493 0.0018891856213107709 0.0007499688244507576 0.0018891856213107709 0.0010462891996373472 -0.00015382039429996848 0.0007499688244507576 -0.00015382039429996848 -0.0004904610488021824" pbc="T T T"
Si      -5.48604206      -2.72168101       8.13843914
Si       2.24065299       1.82564704       6.91404778
Si      -1.21298623       3.44119102       5.74213542
Si       3.15227625       1.71493961       2.05385084
Si       0.08433650       3.33237580       8.41389300
Si       0.30587717       1.95754342       1.98465500
Si       1.81680820       3.54175643       2.90859444
Si      -1.27381221      -0.53743527       6.89811492
Si       3.60303583       4.96810898       0.13236779
Si      -0.15134835       0.74293292       4.05525199
Si       1.94926967       5.62475166       1.77712174
Si      -0.01917030       1.42922810       6.31715164
Si       0.63981916      -1.43520103       4.31597606
Si       2.90200070       2.65416102      -0.08386877
14
Lattice="7.2181083404645 1.1855633575829627 -1.6847446404850666 0.12938135815939977 5.673739460591011 0.606245244844661 -5.616531255731892 -2.55063660981905 8.74003576917605" Properties=species:S:1:pos:R:3 unique_starting_index=128 config_type=initial n_minim_iter=10 stress="-0.0012577735877008312 -0.001773804109354742 -0.0005281663838903393 -0.001773804109354742 0.001306927517942335 0.0002227380433434506 -0.0005281663838903393 0.0002227380433434506 0.0007769127459416205" pbc="T T T"
Si      -5.45467409      -2.69089454       8.14734118
Si       2.19150837       1.81843344       6.93247880
Si      -1.25948582       3.48909570       5.77373088
Si       3.12138763       1.71614378       2.05487806
Si       0.02570607       3.37248330       8.43711117
Si       0.29500202       1.97841266       1.99716380
Si       1.76504272       3.52518353       2.91960620
Si      -1.29446907      -0.51278808       6.90700559
Si       3.52722584       4.95088062       0.12425815
Si      -0.17231014       0.74937904       4.04726449
Si       1.90330897       5.65112609       1.79701358
Si      -0.07317654       1.45750648       6.32257040
Si       0.64019762      -1.42428553       4.32257020
Si       2.85436261       2.64628689      -0.08397973
14
Lattice="7.165015491238175 1.2259983063414446 -1.741257195688244 0.1480741707520337 5.671135048235236 0.5767052006003047 -5.631022224562147 -2.623665557116122 8.809168279125734" Properties=species:S:1:pos:R:3 unique_starting_index=128 config_type=initial n_minim_iter=11 stress="-0.0009651457974842279 -7.590823317460702e-05 -0.001894727883437951 -7.590823317460702e-05 -0.005213289055205266 -0.0037765339542977835 -0.001894727883437951 -0.0037765339542977835 0.001923091188289402" pbc="T T T"
Si      -5.45144890      -2.83902232       8.20011686
Si       2.11540852       1.76097875       6.94026512
Si      -1.29994685       3.47354907       5.78458588
Si       3.13766804       1.74435926       2.05157169
Si      -0.02197916       3.34343014       8.44432773
Si       0.30888772       1.97495096       2.00053033
Si       1.74689679       3.50159037       2.91016207
Si      -1.36646310      -0.54853398       6.93614556
Si       3.49430485       4.95118814       0.04741004
Si      -0.20152569       0.71672307       4.02386615
Si       1.94434871       5.67535871       1.78853685
Si      -0.15637519       1.43363016       6.29925965
Si       0.61861143      -1.42506319       4.33080573
Si       2.84334257       2.66603147      -0.11925419
14
Lattice="7.039850794249902 1.2097025210307588 -1.7675139255750425 0.12951408539095183 5.775351885019779 0.6284984606913442 -5.575462820570625 -2.564944634840098 8.784410727786321" Properties=species:S:1:pos:R:3 unique_starting_index=128 config_type=initial n_minim_iter=12 stress="0.0006387357383475373 -0.000692372281253309 0.0006001332939220752 -0.000692372281253309 0.004680823377556165 -9.72132298712199e-05 0.0006001332939220752 -9.72132298712199e-05 8.540944938969879e-05" pbc="T T T"
Si      -5.37455023      -2.85377372       8.16695016
Si       2.00268010       1.80533585       6.93507738
Si      -1.34651152       3.61940618       5.81808096
Si       3.12464763       1.81505081       2.05605882
Si      -0.09480805       3.50287220       8.45377346
Si       0.30555735       2.01853046       2.02053628
Si       1.69285592       3.60496385       2.95024289
Si      -1.43487525      -0.46293586       6.92698979
Si       3.39486202       5.01202327       0.04681561
Si      -0.23983394       0.75918482       3.97756578
Si       1.92187129       5.79842443       1.85155577
Si      -0.24253342       1.53284697       6.25616924
Si       0.61219925      -1.39034073       4.28280892
Si       2.81795628       2.70638499      -0.13123994
14
Lattice="6.842807719627597 1.2585734869078395 -1.8520384866203923 0.1560358105732226 5.836494959676751 0.6663035033804438 -5.527120094417094 -2.566593244205514 8.852152486854385" Properties=species:S:1:pos:R:3 unique_starting_index=128 config_type=initial n_minim_iter=13 stress="0.005362579853592147 0.0006822078449357424 0.001761035158164215 0.0006822078449357424 -0.0010977436691899476 0.004000053896685017 0.001761035158164215 0.004000053896685017 -0.000161567018901435" pbc="T T T"
Si      -5.24386407      -3.04147605       8.25201882
Si       1.76555227       1.79656246       6.94958276
Si      -1.40578056       3.74857708       5.85962189
Si       3.15618502       1.92146716       2.07818438
Si      -0.19348796       3.65252466       8.51012704
Si       0.31068543       2.01142490       2.04815868
Si       1.65896044       3.73726243       2.97544931
Si      -1.54872074      -0.38886063       6.94018960
Si       3.27537852       5.08227251      -0.02436867
Si      -0.32289219       0.79809877       3.95673180
Si       1.97203583       5.89493300       1.93316568
Si      -0.40693748       1.58209790       6.18484057
Si       0.53200366      -1.34082961       4.25568390
Si       2.76212897       2.75392275      -0.12322033
14
Lattice="6.586976102507621 1.3159904178027984 -1.9633457334771705 0.1798814959265098 5.919819932615899 0.6883526613074136 -5.4536454429992425 -2.605907369649187 8.967017880169909" Properties=species:S:1:pos:R:3 unique_starting_index=128 config_type=initial n_minim_iter=14 stress="0.0066399806642593266 0.0018217366538910537 -0.0004695941102257755 0.0018217366538910537 -0.0006414430844010604 0.005498263678700519 -0.0004695941102257755 0.005498263678700519 -0.001587511432235192" pbc="T T T"
Si      -5.10178052      -3.25990773       8.37027131
Si       1.50365752       1.73836513       6.98637323
Si      -1.46783088       3.88082556       5.92790729
Si       3.15618464       2.04612216       2.08509996
Si      -0.32014091       3.79581775       8.58475741
Si       0.31416048       2.00245335       2.07648233
Si       1.60161567       3.87497591       2.99997684
Si      -1.67173352      -0.33667403       6.97303272
Si       3.11839886       5.16678778      -0.11638759
Si      -0.42390992       0.81637446       3.93129031
Si       1.99278584       6.00855986       1.99339728
Si      -0.58819128       1.61707336       6.11981312
Si       0.44602591      -1.30232752       4.24973238
Si       2.68811159       2.81777347      -0.13058036
14
Lattice="6.419223662652702 1.3431931170011266 -1.999153678854139 0.197091059772868 5.910354449503493 0.6901183856140903 -5.353017955764859 -2.6294951167852947 9.072563635256095" Properties=species:S:1:pos:R:3 unique_starting_index=128 config_type=initial n_minim_iter=15 stress="0.00026172441196105367 0.00199983195084487 -0.002200042541812718 0.00199983195084487 -0.004365988204213377 0.007601384614265285 -0.002200042541812718 0.007601384614265285 -0.004363388915273682" pbc="T T T"
Si      -4.97522632      -3.33878984       8.47588423
Si       1.40238894       1.64348600       7.07602434
Si      -1.46142476       3.90098514       6.00538038
Si       3.16296669       2.10132904       2.10708611
Si      -0.34693594       3.82179223       8.68501616
Si       0.32963323       1.96136609       2.10419929
Si       1.58970514       3.92033777       3.03717816
Si      -1.69374682      -0.32143144       7.01961127
Si       3.01688699       5.17161901      -0.14887608
Si      -0.47580324       0.80260666       3.93884333
Si       1.99963692       5.99597826       2.02713282
Si      -0.65330321       1.59925592       6.11603083
Si       0.42314591      -1.27993193       4.29882729
Si       2.64698120       2.83251088      -0.11578727
14
Lattice="6.456000446091764 1.34117099743408 -1.9632059225596132 0.201031188446902 5.82914803537668 0.6468135671474342 -5.323729949959264 -2.6723671267753804 9.114511038309887" Properties=species:S:1:pos:R:3 unique_starting_index=128 config_type=initial n_minim_iter=16 stress="0.0025593372805070716 0.0018895849986861714 -0.00023483425718658603 0.0018895849986861714 -0.008203483359211906 0.006628011465588975 -0.00023483425718658603 0.006628011465588975 -0.0031689302505155253" pbc="T T T"
Si      -4.96591489      -3.28782034       8.52059821
Si       1.49456703       1.54737239       7.13635480
Si      -1.41250734       3.78567694       6.02096314
Si       3.18846673       2.05246607       2.10982773
Si      -0.28462023       3.69302804       8.71739108
Si       0.34832558       1.90863890       2.10316660
Si       1.63054142       3.84765753       3.03760043
Si      -1.63515804      -0.38179180       7.04166285
Si       3.03451796       5.11536474      -0.13575938
Si      -0.46730272       0.75325831       3.96183435
Si       2.00219412       5.87648985       1.98341355
Si      -0.59471723       1.52088215       6.15247626
Si       0.46278200      -1.30849462       4.36750794
Si       2.67355719       2.79814952      -0.10609570
14
Lattice="6.353770005498476 1.3967525482192347 -1.9629808328031826 0.21579285338587326 5.818916777437551 0.5191539769828368 -5.197844340132631 -2.907562173773473 9.281590891584784" Properties=species:S:1:pos:R:3 unique_starting_index=128 config_type=initial n_minim_iter=17 stress="-0.001544944355337827 0.001797769149298107 0.000247369415122613 0.001797769149298107 0.0006933338335544065 -0.004204225253448125 0.000247369415122613 -0.004204225253448125 0.0019344755311277318" pbc="T T T"
Si      -4.85917367      -3.47194345       8.67278984
Si       1.52851856       1.31382819       7.26675187
Si      -1.35044760       3.63218668       6.04124180
Si       3.20191495       2.02833554       2.10078591
Si      -0.22027397       3.50650534       8.78443029
Si       0.38506650       1.84369935       2.10445892
Si       1.66218788       3.75478224       3.00045651
Si      -1.57147711      -0.55352713       7.10841684
Si       2.97424603       5.14249353      -0.21211760
Si      -0.49732322       0.64575319       3.98753423
Si       2.01678307       5.82941208       1.88672354
Si      -0.56917358       1.36798079       6.18293326
Si       0.48310847      -1.42115156       4.52767755
Si       2.64538253       2.80858354      -0.10804407
14
Lattice="6.4012023743063144 1.3301228818246318 -1.9461544694156743 0.17547715946555384 5.791413045878728 0.5315557941662756 -5.211553729435448 -2.829393522965712 9.242085269279203" Properties=species:S:1:pos:R:3 unique_starting_index=128 config_type=initial n_minim_iter=18 stress="0.002254408031249299 -0.0003069802834314691 0.0006626417462348703 -0.0003069802834314691 0.00015437066285807662 -0.0021744830681688287 0.0006626417462348703 -0.0021744830681688287 0.0005656324664435977" pbc="T T T"
Si      -4.89726124      -3.32981866       8.60526725
Si       1.56507867       1.32083145       7.26166449
Si      -1.37170414       3.60677184       6.03726631
Si       3.19893531       1.98150391       2.07578786
Si      -0.22915861       3.50729582       8.76787201
Si       0.38095531       1.85056585       2.10670783
Si       1.65378668       3.68945259       3.00064890
Si      -1.56518037      -0.52275581       7.09251186
Si       2.96614417       5.09760396      -0.17129532
Si      -0.51888385       0.64747276       3.97196303
Si       1.98009958       5.79198620       1.88199608
Si      -0.55217692       1.38692296       6.19047311
Si       0.51138859      -1.42158411       4.53053074
Si       2.66283575       2.77256694      -0.11102977
14
Lattice="6.3271223814956645 1.2829195499709325 -1.9613126913872654 0.14646452706603572 5.786958377341176 0.5628798460382585 -5.164254841898891 -2.7504551556180608 9.266875270232845" Properties=species:S:1:pos:R:3 unique_starting_index=128 config_type=initial n_minim_iter=19 stress="-0.0035977160731337932 -0.002685980177206562 -0.001254710663636864 -0.002685980177206562 0.0007134855780679625 0.0015914982235620237 -0.001254710663636864 0.0015914982235620237 -0.0007407157406618255" pbc="T T T"
Si      -4.85961679      -3.23088736       8.59286714
Si       1.50126373       1.33364130       7.30710423
Si      -1.39862288       3.60660327       6.06943819
Si       3.18676396       1.96008662       2.05996555
Si      -0.25448801       3.57936811       8.82168781
Si       0.37812243       1.85930564       2.14087205
Si       1.63015570       3.65384471       3.02202597
Si      -1.58463826      -0.45537936       7.12088786
Si       2.89647959       5.09195784      -0.14597210
Si      -0.58944908       0.66270818       3.97053995
Si       1.95137829       5.79687811       1.93222339
Si      -0.57176291       1.42817930       6.20344489
Si       0.50336802      -1.41285663       4.55172560
Si       2.64736679       2.75395811      -0.11095717
14
Lattice="6.368532956562572 1.3310995965203678 -1.948287267646343 0.1806386004823673 5.760656120340228 0.5348147162675756 -5.1938916311962195 -2.8150921799325883 9.231686295740223" Properties=species:S:1:pos:R:3 unique_starting_index=128 config_type=initial n_minim_iter=20 stress="-0.0020935162680806862 -0.0015960567446101088 -0.0022014756794115336 -0.0015960567446101088 0.0028980807179266052 -0.0014445134806066074 -0.0022014756794115336 -0.0014445134806066074 -0.0036209931439184157" pbc="T T T"
Si      -4.88564682      -3.27012337       8.55545270
Si       1.48383446       1.34036678       7.27279743
Si      -1.38797266       3.51593919       5.98651638
Si       3.25470431       1.91698650       2.03078880
Si      -0.18972161       3.56474894       8.77539061
Si       0.39106935       1.84106992       2.14720909
Si       1.69284383       3.61378788       2.98236837
Si      -1.59383247      -0.48145185       7.10044178
Si       2.94382938       5.12599722      -0.16083890
Si      -0.64539801       0.64350665       3.96590788
Si       2.02821947       5.78536502       1.94283108
Si      -0.53444513       1.38479409       6.16085489
Si       0.48067283      -1.44935026       4.52602732
Si       2.68892503       2.75777956      -0.11864427
14
Lattice="6.390468411704811 1.4084356992213707 -1.8625855919686973 0.2587104942399179 5.707056310971866 0.5717626952432039 -5.13308039283884 -2.815094025318958 9.242433603936794" Properties=species:S:1:pos:R:3 unique_starting_index=128 config_type=initial n_minim_iter=21 stress="1.218053140204862e-05 0.0005857453010710732 0.0008483671235512962 0.0005857453010710732 -0.0016476350535574956 0.002022005383215912 0.0008483671235512962 0.002022005383215912 0.006602496216720951" pbc="T T T"
Si      -4.82658922      -3.27254707       8.55655232
Si       1.57757443       1.43451969       7.39310358
Si      -1.29254707       3.48671934       6.02166687
Si       3.34597667       1.92853473       2.11076840
Si      -0.00429727       3.61244374       8.89880648
Si       0.43471456       1.84014361       2.20315831
Si       1.81035109       3.59896694       3.05614598
Si      -1.51667683      -0.47073774       7.13706504
Si       3.02243430       5.14506787      -0.09503212
Si      -0.62648213       0.64434131       4.01162741
Si       2.16668126       5.77744172       2.07305499
Si      -0.42646678       1.37986377       6.22607411
Si       0.49572208      -1.41341563       4.54715742
Si       2.71364910       2.77944706      -0.04209384
