6
Lattice="5.569227367615806 0.7213342510384725 -0.11221902936872573 -2.0007409775086633 5.247251863103179 0.11221902936874517 -2.9556009191144823 -2.283964031683331 4.194894658198346" Properties=species:S:1:pos:R:3 unique_starting_index=74 config_type=initial n_minim_iter=1 energy=-974.3391115220061 free_energy=-974.3391115220061 pbc="T T T"
Si      -0.44974642       2.81414733       3.57097342
Si      -2.69180645      -0.93588194       3.57097342
Si      -0.57979595       0.34664725       1.43925585
Si      -3.60700683       2.15655007       4.06993422
Si       1.84284917       2.94925384       0.09154681
Si       3.06174876       2.22050058       1.99555710
6
Lattice="5.608044829114173 0.7348410806080891 -0.12462630579336176 -2.0072170315396565 5.287838689616066 0.12462630579338137 -2.9884350438590532 -2.301048166726142 4.216648344152094" Properties=species:S:1:pos:R:3 unique_starting_index=74 config_type=initial n_minim_iter=2 stress="0.0037993472384263262 -0.0004368540154039155 -0.0011018743590307835 -0.0004368540154039155 0.003329858483823762 0.0006587864493558411 -0.0011018743590307835 0.0006587864493558411 0.003296864833989943" pbc="T T T"
Si      -0.46240066       2.84044928       3.58609921
Si      -2.72096507      -0.93718490       3.58609921
Si      -0.58356231       0.34889908       1.45304188
Si      -3.63390180       2.17262999       4.10381926
Si       1.86423215       2.97318436       0.09968878
Si       3.07553603       2.24897241       1.99183401
6
Lattice="5.5829059963321175 0.7781133492204751 -0.12110810236288257 -1.9572001448633596 5.28617700621754 0.12110810236290233 -2.9872668830380817 -2.3299888976813627 4.175686198310371" Properties=species:S:1:pos:R:3 unique_starting_index=74 config_type=initial n_minim_iter=3 stress="0.003529533587888224 0.005073908599612391 -0.010784045988211848 0.005073908599612391 0.00898248341872747 0.006447543958198968 -0.010784045988211848 0.006447543958198968 -0.0069780628192206064" pbc="T T T"
Si      -0.47060497       2.82905369       3.52228082
Si      -2.71481038      -0.92456388       3.52228082
Si      -0.56322067       0.33673726       1.47355662
Si      -3.57163880       2.13540430       4.08790389
Si       1.90591200       2.97650721       0.14536507
Si       3.04459330       2.29571470       1.92406853
6
Lattice="5.448917324991636 0.5343992289757508 0.4180188134602119 -2.1084602764684153 5.052789112270429 -0.41801881346019265 -2.403576336085676 -2.3551416400466287 4.339026495754324" Properties=species:S:1:pos:R:3 unique_starting_index=74 config_type=initial n_minim_iter=4 stress="0.027399825163205566 7.960933600839663e-05 0.0001649477544769441 7.960933600839663e-05 0.027485381634473754 -9.861863524663075e-05 0.0001649477544769441 -9.861863524663075e-05 0.027466547597274744" pbc="T T T"
Si      -0.28247752       2.42721058       3.48959565
Si      -2.27178671      -0.90007216       3.48959565
Si      -0.36093602       0.21579572       1.61435990
Si      -3.08104064       1.84208645       3.97815967
Si       1.82484234       2.70115398       0.24151808
Si       3.05579387       1.96519512       2.16435439
6
Lattice="5.2778605790579505 0.25246564111960407 1.0373838662061448 -2.275841250210984 4.768657861050419 -1.0373838662061265 -1.724295293128862 -2.377064183670565 4.513544957856196" Properties=species:S:1:pos:R:3 unique_starting_index=74 config_type=initial n_minim_iter=5 stress="0.03286236771051825 -0.000230838299981833 0.009398109465792722 -0.000230838299981833 0.03261428486784747 -0.0056189229878010295 0.009398109465792722 -0.0056189229878010295 0.03951385823205335" pbc="T T T"
Si      -0.09413635       1.98692982       3.38700277
Si      -1.79480296      -0.85757453       3.38700277
Si      -0.08663458       0.05179691       1.82830165
Si      -2.47133421       1.47755639       3.90063093
Si       1.75761487       2.35714314       0.40083610
Si       3.02138741       1.60156134       2.37494120
6
Lattice="5.173162964265775 0.21330005469346017 0.9819921956426303 -2.2607836092062388 4.6578932405678515 -0.9819921956426149 -1.7079746955707953 -2.2850599220260217 4.430885265105258" Properties=species:S:1:pos:R:3 unique_starting_index=74 config_type=initial n_minim_iter=6 stress="0.01745094894219643 -0.005426336765297039 0.010813548580136705 -0.005426336765297039 0.011619243154536902 -0.006465182909157535 0.010813548580136705 -0.006465182909157535 0.028189701540316282" pbc="T T T"
Si      -0.12049477       1.95459714       3.34077452
Si      -1.77879833      -0.81905155       3.34077452
Si      -0.10794851       0.06454004       1.78827694
Si      -2.46680718       1.47484977       3.83815015
Si       1.68381468       2.29950467       0.35556690
Si       2.96287925       1.53478009       2.35355929
6
Lattice="5.122861180468843 0.2671883504525946 0.832621504828747 -2.189504609153993 4.6390910591909735 -0.8326215048287305 -1.8240169859569582 -2.239494753690718 4.3204143484633635" Properties=species:S:1:pos:R:3 unique_starting_index=74 config_type=initial n_minim_iter=7 stress="0.012045922648504641 -0.003321516572029094 0.0005849479253301563 -0.003321516572029094 0.008476275526566442 -0.0003497275017139403 0.0005849479253301563 -0.0003497275017139403 0.014437189847691972" pbc="T T T"
Si      -0.17567520       2.01606384       3.28939918
Si      -1.85906226      -0.79953906       3.28939918
Si      -0.16019549       0.09577737       1.73509174
Si      -2.54043002       1.51886725       3.80354079
Si       1.67076400       2.33112135       0.31879681
Si       2.91917864       1.58472169       2.26891176
6
Lattice="4.9856779145317525 0.266472796619226 0.7872215748522948 -2.1252003293524164 4.517910532415197 -0.7872215748522792 -1.7962066187125059 -2.1733875488084524 4.19496581300479" Properties=species:S:1:pos:R:3 unique_starting_index=74 config_type=initial n_minim_iter=8 stress="-0.01235926699531737 -0.007018615229594268 0.005474086676537767 -0.007018615229594268 -0.019902200806123045 -0.003272836050268105 0.005474086676537767 -0.003272836050268105 -0.004369107010210897" pbc="T T T"
Si      -0.21040367       1.98133519       3.16136000
Si      -1.84490896      -0.75250895       3.16136000
Si      -0.15361706       0.09184427       1.72799978
Si      -2.45602518       1.46840345       3.72881686
Si       1.62967783       2.27295145       0.31153836
Si       2.83714768       1.55103178       2.19769456
6
Lattice="4.822401212398918 0.3851259733157964 0.5703988414049943 -1.9433955520479866 4.430247080801371 -0.5703988414049764 -1.9346574645909194 -2.1116444594534274 3.940468053227686" Properties=species:S:1:pos:R:3 unique_starting_index=74 config_type=initial n_minim_iter=9 stress="-0.03986159313699405 0.008692219060400049 -0.014191644152859659 0.008692219060400049 -0.030520030606948433 0.00848487196871174 -0.014191644152859659 0.00848487196871174 -0.05489417635540564" pbc="T T T"
Si      -0.30955633       2.06760689       2.93520834
Si      -1.96783699      -0.70600349       2.93520834
Si      -0.18622200       0.11133804       1.69557225
Si      -2.43005353       1.45287557       3.64548566
Si       1.60492312       2.30878538       0.25839858
Si       2.74326100       1.62819819       2.03656559
6
Lattice="4.776496824454446 0.4085038361872595 0.523832186166168 -1.9010740162410154 4.400876603925213 -0.523832186166149 -1.9585995290580542 -2.0932626643319274 3.877929442415741" Properties=species:S:1:pos:R:3 unique_starting_index=74 config_type=initial n_minim_iter=10 stress="-0.053894463978023534 0.016549849268053963 -0.03174209154545716 0.016549849268053963 -0.03610827489027932 0.018977898535319938 -0.03174209154545716 0.018977898535319938 -0.08578850871126399" pbc="T T T"
Si      -0.34180172       2.08690664       2.86248326
Si      -2.00010083      -0.68673460       2.86248326
Si      -0.18264904       0.10920185       1.70636880
Si      -2.40381056       1.43718548       3.63658172
Si       1.59271931       2.31201441       0.24213368
Si       2.71856452       1.63889631       2.00078622
6
Lattice="4.7749948537357865 0.4165356336893541 0.5656860866770176 -1.8932880306570756 4.403355336593546 -0.5656860866769953 -1.9259853150701634 -2.119895787935174 3.8846751409127718" Properties=species:S:1:pos:R:3 unique_starting_index=74 config_type=initial n_minim_iter=11 stress="-0.04894735947387049 0.015245566287854563 -0.004276376765803011 0.015245566287854563 -0.0325628885126198 0.0025567516319461806 -0.004276376765803011 0.0025567516319461806 -0.06102614474592157" pbc="T T T"
Si      -0.35253236       2.10050225       2.79167327
Si      -2.01715617      -0.68371758       2.79167327
Si      -0.12757366       0.07627349       1.78363581
Si      -2.31554556       1.38441378       3.68500660
Si       1.58872015       2.32153922       0.23097866
Si       2.74076204       1.63275870       2.03055234
6
Lattice="4.881573289780256 0.3774035277565867 0.5410961182479845 -1.9782067173960087 4.478715149404842 -0.5410961182479606 -1.984341185672253 -2.109594893479688 3.984592282742643" Properties=species:S:1:pos:R:3 unique_starting_index=74 config_type=initial n_minim_iter=12 stress="0.003185416441941223 -0.007962011104007894 -0.014500896788528918 -0.007962011104007894 -0.005371388681839185 0.0086697673192 -0.014500896788528918 0.0086697673192 -0.0021043001923097553" pbc="T T T"
Si      -0.40965628       2.17222115       2.85075255
Si      -2.10737097      -0.66734589       2.85075255
Si      -0.11676226       0.06980959       1.85303008
Si      -2.40481311       1.43778488       3.84137054
Si       1.58039575       2.35110499       0.20105827
Si       2.78232582       1.63249743       2.07856093
6
Lattice="4.8888846315037515 0.4258923994494718 0.5917431208846204 -1.9389546650714375 4.50810737259663 -0.5917431208845978 -1.9614038000632723 -2.1761688140836144 3.98119600407778" Properties=species:S:1:pos:R:3 unique_starting_index=74 config_type=initial n_minim_iter=13 stress="0.002772786799370718 0.00874954310882488 0.004220125672972618 0.00874954310882488 0.012175955713140226 -0.002523120340487546 0.004220125672972618 -0.002523120340487546 0.00046643828512723395" pbc="T T T"
Si      -0.35449571       2.17218784       2.83865675
Si      -2.08123182      -0.71591990       2.83865675
Si      -0.08984309       0.05371521       1.85103465
Si      -2.35193949       1.40617291       3.81682042
Si       1.59853794       2.39311834       0.19303000
Si       2.81940646       1.66318790       2.10011589
6
Lattice="4.8774801951151865 0.3980026911544344 0.5854769423616503 -1.9581239184443915 4.484860077630408 -0.5854769423616275 -1.9523788163600826 -2.1468564833514905 3.9837453035134405" Properties=species:S:1:pos:R:3 unique_starting_index=74 config_type=initial n_minim_iter=14 stress="0.0014163376676814973 -0.0002099409249921387 0.0020385398017604825 -0.0002099409249921387 0.001190713317349337 -0.0012187981205526769 0.0020385398017604825 -0.0012187981205526769 0.002954692251186528" pbc="T T T"
Si      -0.37082104       2.15928257       2.84108023
Si      -2.07759130      -0.69543066       2.84108023
Si      -0.08994023       0.05377329       1.85309033
Si      -2.36036490       1.41121027       3.82611346
Si       1.58314112       2.36761559       0.19285820
Si       2.80157923       1.63913823       2.09614763
6
Lattice="4.872384709251762 0.3963062142432746 0.5786678949101333 -1.9572064016557738 4.479568558657836 -0.578667894910112 -1.9550343831454124 -2.1405258225051194 3.9784466399472125" Properties=species:S:1:pos:R:3 unique_starting_index=74 config_type=initial n_minim_iter=15 stress="0.000544495371658739 -0.0007954099328332445 -0.00023183812676163176 -0.0007954099328332445 -0.00031033485903118554 0.00013861091793519344 -0.00023183812676163176 0.00013861091793519344 0.0008593751646203739" pbc="T T T"
Si      -0.37606954       2.15793843       2.83807805
Si      -2.07889161      -0.69017113       2.83807805
Si      -0.08851482       0.05292107       1.85093655
Si      -2.36428118       1.41355173       3.82860166
Si       1.58002144       2.36473782       0.19124818
Si       2.79445795       1.63865294       2.08828681
6
Lattice="4.869384073529009 0.3967813479103107 0.5784049088748245 -1.9553675397063766 4.477150263085893 -0.5784049088748042 -1.9539800180616325 -2.1398373237550605 3.975669408927277" Properties=species:S:1:pos:R:3 unique_starting_index=74 config_type=initial n_minim_iter=16 stress="-0.0001828904513281878 -0.0004945705228743343 -0.00014073072581537573 -0.0004945705228743343 -0.0007144073669587763 8.413980633502573e-05 -0.00014073072581537573 8.413980633502573e-05 1.5267198194695473e-05" pbc="T T T"
Si      -0.37515627       2.15518436       2.83750693
Si      -2.07603332      -0.68967199       2.83750693
Si      -0.08586715       0.05133809       1.84695853
Si      -2.36541539       1.41422985       3.82791013
Si       1.57858405       2.36427832       0.18991027
Si       2.79231560       1.63861492       2.08584769
6
Lattice="4.8697706017410765 0.3982159938104187 0.5784856397791069 -1.9542867506270634 4.478169825680078 -0.578485639779084 -1.9545482998860542 -2.141163303167051 3.9753047655901534" Properties=species:S:1:pos:R:3 unique_starting_index=74 config_type=initial n_minim_iter=17 stress="-0.00010720549289905237 2.193184331146825e-05 -7.159682326653064e-05 2.193184331146825e-05 -8.36352533263955e-05 4.280616623707161e-05 -7.159682326653064e-05 4.280616623707161e-05 -0.00016993913402493582" pbc="T T T"
Si      -0.37464752       2.15560522       2.83717984
Si      -2.07616324      -0.69031935       2.83717984
Si      -0.08528627       0.05099079       1.84615828
Si      -2.36572683       1.41441606       3.82788533
Si       1.57917580       2.36559027       0.18968860
Si       2.79329527       1.63969494       2.08623198
6
Lattice="4.870186449959844 0.39832822250216837 0.5787335832726622 -1.9543847291672196 4.478589260092083 -0.5787335832726388 -1.9545764988110814 -2.1415072988472286 3.975662358639546" Properties=species:S:1:pos:R:3 unique_starting_index=74 config_type=initial n_minim_iter=18 stress="7.067566820680329e-06 6.076333057712861e-05 1.0269535350303982e-05 6.076333057712861e-05 7.237016080261913e-05 -6.139929361100151e-06 1.0269535350303982e-05 -6.139929361100151e-06 -2.2144062277090738e-05" pbc="T T T"
Si      -0.37470261       2.15560027       2.83727322
Si      -2.07618496      -0.69026848       2.83727322
Si      -0.08515073       0.05090976       1.84599429
Si      -2.36602656       1.41459526       3.82809958
Si       1.57953015       2.36573927       0.18999384
Si       2.79382892       1.63973674       2.08681731
6
Lattice="4.870160838136892 0.3982074602546197 0.5787529209830955 -1.9544789829155593 4.478509537342307 -0.578752920983071 -1.9545104416587706 -2.141410717972721 3.9757061994910985" Properties=species:S:1:pos:R:3 unique_starting_index=74 config_type=initial n_minim_iter=19 stress="-1.3004502438783905e-05 1.9394886127245502e-05 1.7873402565940638e-05 1.9394886127245502e-05 7.839259119336618e-06 -1.0686114362167062e-05 1.7873402565940638e-05 -1.0686114362167062e-05 -1.2212892932134704e-05" pbc="T T T"
Si      -0.37490857       2.15555568       2.83710118
Si      -2.07624316      -0.69006595       2.83710118
Si      -0.08511538       0.05088862       1.84601180
Si      -2.36605043       1.41460953       3.82816855
Si       1.57951220       2.36561393       0.19005942
Si       2.79398395       1.63950797       2.08715310
