12
Lattice="5.636453475891211 0.292711047263179 0.14254345150647232 -0.8811295005105364 5.269784923229551 -0.7578746152180625 -0.9983186933731498 -1.9880521857331843 7.634752401509226" Properties=species:S:1:pos:R:3 unique_starting_index=106 config_type=initial n_minim_iter=1 energy=-1953.0247277000722 free_energy=-1953.0247277000722 pbc="T T T"
Si       4.13778230       0.62034519       4.29756659
Si       1.94252873       2.17621680       1.69364953
Si       0.37327036       1.91395800       4.67017358
Si       2.96303067       3.72818613       0.03096257
Si       0.10042393       3.74571924       1.76868876
Si       1.84231210       0.41999753       3.63015278
Si      -0.06384592      -1.05369220       7.50893112
Si      -0.75525528       0.04649239       1.68254914
Si       4.10571724       2.49874938       2.75884176
Si      -0.31164821       1.87444280       6.96738693
Si       3.55099053       0.19476910       6.63270913
Si       1.60544226      -1.03026573       5.68749065
12
Lattice="5.629987766476426 0.2914822874258077 0.1416025915047551 -0.8812401142673253 5.27605623293101 -0.7668356104049753 -0.9990106163020058 -1.9956013465904616 7.689642038267206" Properties=species:S:1:pos:R:3 unique_starting_index=106 config_type=initial n_minim_iter=2 stress="0.002194566400400544 8.647895213692248e-05 -0.00041576364496505834 8.647895213692248e-05 0.0024340977571085083 -0.0003854964469527831 -0.00041576364496505834 -0.0003854964469527831 0.003543021324238767" pbc="T T T"
Si       4.12995783       0.61519160       4.32460829
Si       1.93912327       2.17678990       1.70388143
Si       0.36942154       1.91322993       4.69982583
Si       2.95987309       3.73125854       0.02894516
Si       0.10057476       3.74825092       1.77752245
Si       1.83917126       0.41578298       3.65572440
Si      -0.06437831      -1.06152471       7.56103970
Si      -0.75437864       0.04471215       1.69405104
Si       4.09972208       2.50008984       2.77643238
Si      -0.31424847       1.87272555       7.01291257
Si       3.54551059       0.19031386       6.67740325
Si       1.60024028      -1.03664742       5.72859957
12
Lattice="5.605165370101604 0.28858945954083004 0.1436982491907767 -0.8795753636775658 5.26209060087768 -0.7686348882979276 -0.9912276445886467 -1.9907108249530443 7.698283017395901" Properties=species:S:1:pos:R:3 unique_starting_index=106 config_type=initial n_minim_iter=3 stress="-0.002413075693015753 -0.0004936652587507016 -0.0004575918775146732 -0.0004936652587507016 -0.0012266153224731247 -0.0003641033488612806 -0.0004575918775146732 -0.0003641033488612806 0.0018475524612420835" pbc="T T T"
Si       4.11078090       0.60943634       4.32943558
Si       1.93028100       2.16999120       1.70688471
Si       0.36638891       1.90834079       4.70354324
Si       2.94688331       3.71974911       0.03183423
Si       0.10176825       3.73792029       1.77799782
Si       1.83221547       0.41148865       3.66239844
Si      -0.05915006      -1.06099550       7.56866910
Si      -0.74959804       0.04366234       1.69521317
Si       4.08189887       2.49373430       2.78292336
Si      -0.31152432       1.86893791       7.01816009
Si       3.53312803       0.18952050       6.68566856
Si       1.59282000      -1.03568877       5.73750013
12
Lattice="5.614115081611599 0.29457538181676657 0.15409715587218248 -0.8769261099880898 5.262306128157507 -0.7631480115713077 -0.9803761984634167 -1.9856528875074515 7.6696173876486515" Properties=species:S:1:pos:R:3 unique_starting_index=106 config_type=initial n_minim_iter=4 stress="-0.0016395973310226457 0.00022802942796906016 0.0011344764487105287 0.00022802942796906016 -0.0014399958455788714 0.0004439953402257366 0.0011344764487105287 0.0004439953402257366 -0.000654748783013194" pbc="T T T"
Si       4.12145631       0.61303825       4.32090320
Si       1.93893339       2.17390229       1.70778400
Si       0.37256365       1.91519208       4.68764859
Si       2.95775728       3.72313082       0.04554898
Si       0.11401653       3.74160239       1.77294885
Si       1.84138888       0.41237695       3.65861421
Si      -0.04239552      -1.05733868       7.54120970
Si      -0.74548897       0.04281998       1.68739124
Si       4.09606064       2.50595904       2.78880077
Si      -0.29761996       1.87929390       6.99096516
Si       3.55360805       0.20292631       6.66923408
Si       1.59913559      -1.02989790       5.72408810
12
Lattice="5.624156746229492 0.291106829742981 0.13676907003941316 -0.8798476903192766 5.270931754291971 -0.7635091534951234 -1.0033951752468184 -1.9955366893644702 7.650070546527092" Properties=species:S:1:pos:R:3 unique_starting_index=106 config_type=initial n_minim_iter=5 stress="-0.0004969252907172884 -0.0006346076980498755 0.0003339162530977534 -0.0006346076980498755 -0.0010588210931840852 0.00036423348045030535 0.0003339162530977534 0.00036423348045030535 -0.002356087777890478" pbc="T T T"
Si       4.10762290       0.59653817       4.28800474
Si       1.93759899       2.17243483       1.69618420
Si       0.34660201       1.91638040       4.66189678
Si       2.96513341       3.72430368       0.04323150
Si       0.11676224       3.74651998       1.75722554
Si       1.83133372       0.39842751       3.65043958
Si      -0.05686516      -1.07011074       7.51547116
Si      -0.74759420       0.03868237       1.68264019
Si       4.09466048       2.51430387       2.77624078
Si      -0.31968704       1.88236133       6.95659733
Si       3.54639922       0.20186744       6.63392091
Si       1.57513628      -1.03907873       5.70855199
12
Lattice="5.620654826813323 0.3060268297856805 0.12883218595530047 -0.8643122146815515 5.274412247657814 -0.769526727435521 -1.0185204367210152 -2.0086806955679504 7.666475204226197" Properties=species:S:1:pos:R:3 unique_starting_index=106 config_type=initial n_minim_iter=6 stress="8.736959366509391e-05 0.0008851916333051652 0.0002856432747202455 0.0008851916333051652 0.0002697913923511274 0.00010286893627748418 0.0002856432747202455 0.00010286893627748418 -0.0009319977026608563" pbc="T T T"
Si       4.09282547       0.59204924       4.28190877
Si       1.94126596       2.17629059       1.69577865
Si       0.33373762       1.91622513       4.65720184
Si       2.97529808       3.73225985       0.04405275
Si       0.13326838       3.74833793       1.74943770
Si       1.82117646       0.39175823       3.66351481
Si      -0.06496648      -1.08201896       7.52713062
Si      -0.74503087       0.03397811       1.68649882
Si       4.09659858       2.53483216       2.78293808
Si      -0.32251237       1.88182846       6.95672727
Si       3.54111403       0.21142554       6.63722010
Si       1.55414757      -1.04263700       5.72281334
12
Lattice="5.624800166903431 0.2915567657722152 0.10638089515187812 -0.8752092213740441 5.275328230583503 -0.7817271497986793 -1.0452083509949242 -2.0216062252396085 7.718581828070353" Properties=species:S:1:pos:R:3 unique_starting_index=106 config_type=initial n_minim_iter=7 stress="0.002857553697836352 -0.0007012593152754187 -0.001195527822555286 -0.0007012593152754187 0.0023821734701001736 -8.990086711748593e-06 -0.001195527822555286 -8.990086711748593e-06 0.0031509028546124096" pbc="T T T"
Si       4.06138534       0.53706084       4.26834485
Si       1.93987459       2.16042720       1.69785295
Si       0.27628854       1.90998558       4.64472786
Si       2.97051219       3.71021897       0.04875060
Si       0.13821766       3.73878975       1.73249142
Si       1.78618247       0.35956966       3.70623277
Si      -0.08423511      -1.09693550       7.57107259
Si      -0.74151254       0.03518832       1.70344935
Si       4.09431984       2.54894439       2.80776522
Si      -0.34509982       1.88004825       6.96714274
Si       3.53603890       0.20864709       6.65291113
Si       1.51610890      -1.05669507       5.76501252
12
Lattice="5.6029811813780785 0.3090556787392647 0.10441131501213274 -0.8537764823765532 5.2651618178237545 -0.8160693837496895 -1.048204006766046 -2.0692688778862953 7.738172707709552" Properties=species:S:1:pos:R:3 unique_starting_index=106 config_type=initial n_minim_iter=8 stress="-1.7961154708371354e-05 0.001968884326631588 -0.0010155124332046188 0.001968884326631588 0.002234556104033804 -0.0012720606429705112 -0.0010155124332046188 -0.0012720606429705112 0.001421918129150765" pbc="T T T"
Si       4.04065451       0.47789346       4.24607734
Si       1.95718089       2.14345901       1.69017933
Si       0.24389435       1.87901753       4.59189033
Si       2.96086733       3.69264673       0.04115488
Si       0.16032340       3.70922688       1.68885826
Si       1.74351191       0.33105564       3.73936494
Si      -0.09626483      -1.12727909       7.59318334
Si      -0.73097411       0.03704655       1.72037745
Si       4.10610639       2.57130192       2.82385656
Si      -0.31506753       1.83174770       6.94036594
Si       3.54296659       0.19569212       6.65214580
Si       1.50536267      -1.07779198       5.78312654
12
Lattice="5.6053174216849175 0.29109232904477167 0.12240766553433564 -0.8721417132712126 5.241358813232299 -0.8152157840953109 -1.0190727939407067 -2.04980970076617 7.744379956875725" Properties=species:S:1:pos:R:3 unique_starting_index=106 config_type=initial n_minim_iter=9 stress="8.950971774796314e-05 0.00018520725535037206 5.482950732148369e-06 0.00018520725535037206 0.00013148937894207123 8.203958245574982e-06 5.482950732148369e-06 8.203958245574982e-06 0.00036395429413138097" pbc="T T T"
Si       4.05259931       0.44448854       4.25613084
Si       1.96819245       2.12671614       1.70411641
Si       0.23408689       1.87742987       4.58367956
Si       2.94785470       3.65981987       0.05894755
Si       0.15608053       3.68804297       1.68583401
Si       1.74119403       0.32287294       3.76220476
Si      -0.07539602      -1.10933193       7.60831289
Si      -0.72571517       0.04628015       1.72839419
Si       4.11757882       2.56286245       2.85578433
Si      -0.28971846       1.82840035       6.94186117
Si       3.57287079       0.19626240       6.67095639
Si       1.53092150      -1.06918752       5.79715726
12
Lattice="5.595624323527972 0.27257081109612713 0.15244192945250415 -0.8896798147388333 5.20380531729104 -0.8291114165510738 -0.9705455653948198 -2.0438084563033168 7.748060359830995" Properties=species:S:1:pos:R:3 unique_starting_index=106 config_type=initial n_minim_iter=10 stress="-0.0010957783565654165 -0.003161520789716793 0.0011691908622431734 -0.003161520789716793 -0.003439134608918556 0.001592400159191906 0.0011691908622431734 0.001592400159191906 -0.0034607735635446705" pbc="T T T"
Si       4.05978984       0.35602934       4.25827110
Si       2.00117793       2.10062835       1.72528065
Si       0.20120953       1.87446308       4.54850896
Si       2.92825651       3.61490727       0.07792245
Si       0.15620375       3.65039785       1.65646687
Si       1.73318119       0.29577761       3.79664008
Si      -0.04599791      -1.10287664       7.63063071
Si      -0.71960568       0.05392567       1.74367962
Si       4.13265388       2.56158352       2.90903150
Si      -0.23527408       1.79949347       6.91648398
Si       3.62074817       0.18809758       6.68852773
Si       1.57722418      -1.06857576       5.81863294
12
Lattice="5.5727297501898905 0.31794294265734385 0.19112632999507578 -0.8453371155799175 5.153162436731135 -0.865277908350788 -0.9296129006581481 -2.0728265466734235 7.78859950975562" Properties=species:S:1:pos:R:3 unique_starting_index=106 config_type=initial n_minim_iter=11 stress="-0.0017810100041667932 -0.002693991098752592 0.0017905643457217385 -0.002693991098752592 -0.006415773926648824 0.0009528309297177227 0.0017905643457217385 0.0009528309297177227 -0.0029103052448307314" pbc="T T T"
Si       4.06418113       0.25766248       4.28823441
Si       2.07951297       2.10245810       1.76287118
Si       0.18226144       1.87915381       4.54039497
Si       2.95077922       3.62110604       0.07171386
Si       0.18769801       3.61523053       1.61456131
Si       1.74842156       0.27535100       3.83000214
Si      -0.02448313      -1.12938267       7.70156505
Si      -0.72826079       0.03689737       1.76467570
Si       4.15477390       2.60466865       2.97415970
Si      -0.14826902       1.73385212       6.90737131
Si       3.66840992       0.19215655       6.73451698
Si       1.64508912      -1.06730617       5.87414314
12
Lattice="5.544955738490532 0.36967623251332743 0.18260408201147613 -0.7924202739709306 5.178117464866861 -0.8794021689870635 -0.9527358672869273 -2.1142919562201166 7.804612107278225" Properties=species:S:1:pos:R:3 unique_starting_index=106 config_type=initial n_minim_iter=12 stress="-0.0029324594494088856 1.579620411626731e-05 -0.0008500974163804291 1.579620411626731e-05 -0.0005500631457875862 0.0014307278505725895 -0.0008500974163804291 0.0014307278505725895 -0.001361409529542497" pbc="T T T"
Si       4.02699069       0.20704435       4.27952021
Si       2.11859647       2.13844183       1.77040865
Si       0.15248788       1.90347917       4.52842456
Si       2.97463529       3.68038561       0.05524913
Si       0.21763158       3.63982698       1.58582731
Si       1.73514055       0.26929601       3.83574991
Si      -0.04799112      -1.16026614       7.73060429
Si      -0.74151678       0.02189828       1.77085845
Si       4.14637364       2.68769909       2.98907295
Si      -0.13072517       1.72114162       6.88606884
Si       3.65430121       0.21472418       6.72539389
Si       1.63890080      -1.06890950       5.89506150
12
Lattice="5.556640732735363 0.3950005478205941 0.18394614732996345 -0.7716419843217868 5.2010369052588015 -0.8912164731858963 -0.9602121583242673 -2.145682061782849 7.801545850004804" Properties=species:S:1:pos:R:3 unique_starting_index=106 config_type=initial n_minim_iter=13 stress="0.0012107419565792058 0.0008737913439624158 0.0006726595016482873 0.0008737913439624158 0.003092366838594831 -0.0012952723554261838 0.0006726595016482873 -0.0012952723554261838 0.0021202384176275905" pbc="T T T"
Si       4.04329164       0.21641623       4.29739896
Si       2.12985004       2.16363810       1.76115775
Si       0.18661986       1.90206308       4.55250079
Si       3.00268884       3.72897721       0.02860431
Si       0.22471115       3.66217476       1.58854584
Si       1.76145969       0.27798589       3.80676350
Si      -0.04504083      -1.19165107       7.73027896
Si      -0.75688632       0.00749810       1.75511347
Si       4.14653757       2.70660745       2.96137647
Si      -0.13424785       1.70647534       6.88721803
Si       3.65322176       0.20093745       6.71861947
Si       1.65174574      -1.08033825       5.89190187
12
Lattice="5.569800834225798 0.4155663210122675 0.1735850354606644 -0.7509194828794469 5.179161561636878 -0.9316559950582078 -0.9822179593027929 -2.1974956452491408 7.844148665034244" Properties=species:S:1:pos:R:3 unique_starting_index=106 config_type=initial n_minim_iter=14 stress="0.00505766460978599 0.0018744895778302442 -0.0005260736922781831 0.0018744895778302442 -0.0003724686803276492 -0.00369075759506472 -0.0005260736922781831 -0.00369075759506472 0.0033906059144669203" pbc="T T T"
Si       4.03222595       0.12418651       4.29305212
Si       2.16116751       2.15117982       1.75124973
Si       0.15171241       1.86656310       4.52093256
Si       3.02596972       3.71876900       0.00982633
Si       0.25394974       3.63267406       1.54716056
Si       1.73422358       0.23581224       3.83963879
Si      -0.05179584      -1.24179171       7.77684512
Si      -0.76439717      -0.00063729       1.76116515
Si       4.16687469       2.74503625       2.97693622
Si      -0.12827357       1.65263939       6.86851433
Si       3.67481474       0.18043509       6.71986769
Si       1.63841525      -1.10535612       5.93467948
12
Lattice="5.532168128098808 0.42470315332011815 0.15991351312085472 -0.7361968858088023 5.203278198511643 -0.9202399044500773 -0.9975753542475025 -2.1946500035218692 7.849442053759709" Properties=species:S:1:pos:R:3 unique_starting_index=106 config_type=initial n_minim_iter=15 stress="0.003063092627006611 0.0033091326425538675 -0.0016960189425686565 0.0033091326425538675 0.0015485038643837695 -0.00047436684794571217 -0.0016960189425686565 -0.00047436684794571217 0.002604921976471262" pbc="T T T"
Si       3.98597819       0.05931393       4.28570102
Si       2.15839247       2.17193676       1.74387154
Si       0.12476976       1.87871961       4.50269729
Si       3.00716117       3.73500370       0.01578520
Si       0.26833709       3.65077250       1.54554287
Si       1.68302509       0.22943712       3.86275197
Si      -0.05595769      -1.22772761       7.79579106
Si      -0.76932090       0.01947905       1.75626240
Si       4.13666880       2.83844816       2.99690072
Si      -0.13740299       1.67684804       6.85960397
Si       3.65792247       0.20615090       6.70291824
Si       1.60455880      -1.08852744       5.95068294
12
Lattice="5.484112995324118 0.4098782851703745 0.1418830002447196 -0.7423547499094051 5.239744293846613 -0.9067823795976047 -1.0077973795388329 -2.1926592876475937 7.82714508324" Properties=species:S:1:pos:R:3 unique_starting_index=106 config_type=initial n_minim_iter=16 stress="0.0006015847140334803 0.002149941750730545 -0.0002926729849905765 0.002149941750730545 -0.00048791351512799145 -9.346699243246347e-05 -0.0002926729849905765 -9.346699243246347e-05 -0.0001448579906971105" pbc="T T T"
Si       3.94121692      -0.01681781       4.27904280
Si       2.12933487       2.19121129       1.71364272
Si       0.12220426       1.87670099       4.49231743
Si       2.96830342       3.75092376       0.00168478
Si       0.25904386       3.67586337       1.55594147
Si       1.63378345       0.22047301       3.85496146
Si      -0.04957440      -1.22026763       7.78780356
Si      -0.78346067       0.04826945       1.72906648
Si       4.07020138       2.92712260       2.98060340
Si      -0.17574400       1.69855283       6.84381993
Si       3.62327781       0.19860146       6.66212351
Si       1.56653711      -1.08340501       5.94074926
12
Lattice="5.4716865387303235 0.38578715476664005 0.12767665515878496 -0.7629021659829123 5.259931261948474 -0.8740451605475316 -1.0175753725988719 -2.1547658202233926 7.798097291737835" Properties=species:S:1:pos:R:3 unique_starting_index=106 config_type=initial n_minim_iter=17 stress="-0.0010153112601275268 -0.0005746304263155224 0.00023404160966178836 -0.0005746304263155224 0.0027596858123312795 0.0017123004466849392 0.00023404160966178836 0.0017123004466849392 -0.0011229666945869628" pbc="T T T"
Si       3.93190589       0.01926800       4.26851250
Si       2.09624713       2.19975871       1.70408763
Si       0.13183630       1.89516325       4.51056489
Si       2.94682811       3.75392864       0.00116861
Si       0.23087740       3.69994007       1.58765311
Si       1.63138489       0.23856933       3.82894453
Si      -0.05886319      -1.18783048       7.75629908
Si      -0.78973078       0.06406980       1.71580011
Si       4.03214807       2.92734426       2.95806558
Si      -0.21865201       1.74261328       6.85586195
Si       3.58912602       0.20536040       6.64489751
Si       1.54615575      -1.06920755       5.90688732
12
Lattice="5.4558590544219525 0.3914430241755639 0.12897919988036113 -0.7550559679165767 5.255850547389713 -0.8759122896682973 -1.014964178260327 -2.156644793202035 7.800436487918066" Properties=species:S:1:pos:R:3 unique_starting_index=106 config_type=initial n_minim_iter=18 stress="-0.002031737527469567 -0.0014373351364099258 0.00028047548893686726 -0.0014373351364099258 -0.0015675764111226643 0.000517946408176967 0.00028047548893686726 0.000517946408176967 -0.0009388254304125248" pbc="T T T"
Si       3.92511789      -0.01708509       4.27556741
Si       2.10944346       2.20852112       1.70405474
Si       0.13293334       1.89930089       4.51966588
Si       2.94808020       3.76385639      -0.01622449
Si       0.22592901       3.70256160       1.58689427
Si       1.63439696       0.23120408       3.82311679
Si      -0.05692904      -1.19467835       7.77077153
Si      -0.80485619       0.06701890       1.70846690
Si       4.01081308       2.96164726       2.96140503
Si      -0.22350474       1.73459438       6.85823238
Si       3.58429605       0.19980279       6.65029074
Si       1.55473210      -1.07017642       5.90954901
12
Lattice="5.477239449235675 0.41282418903215 0.11351942080725955 -0.7367138775150341 5.270748335600608 -0.8912989570252349 -1.0451206899391026 -2.19404285767345 7.79369957334016" Properties=species:S:1:pos:R:3 unique_starting_index=106 config_type=initial n_minim_iter=19 stress="0.004251341488589024 -1.5467435113824487e-05 -0.00022511200895617315 -1.5467435113824487e-05 -0.0037965170234865652 -0.0019543784908765518 -0.00022511200895617315 -0.0019543784908765518 0.002666506726151508" pbc="T T T"
Si       3.94352994      -0.01335313       4.24621716
Si       2.13957401       2.21512919       1.68229868
Si       0.13312706       1.89457026       4.50554299
Si       2.99051959       3.78122823      -0.06076219
Si       0.22492998       3.71604269       1.56683797
Si       1.65328348       0.20096639       3.81058115
Si      -0.07716252      -1.24291577       7.76006644
Si      -0.83101406       0.06912669       1.69258983
Si       4.01447508       3.01495180       2.94990687
Si      -0.26684158       1.72428167       6.85174992
Si       3.58703241       0.18525673       6.65927092
Si       1.53862833      -1.11431253       5.88138623
12
Lattice="5.453337959871562 0.4042199851476634 0.11580386919888772 -0.7430111740935952 5.3032554188822685 -0.8915380782849797 -1.033551831690324 -2.2066593599974 7.771908085672772" Properties=species:S:1:pos:R:3 unique_starting_index=106 config_type=initial n_minim_iter=20 stress="0.001356847368811069 -0.00033014221242316024 6.070299964235609e-05 -0.00033014221242316024 -0.00019111497770502654 -0.0009278230601034152 6.070299964235609e-05 -0.0009278230601034152 0.00134853074919989" pbc="T T T"
Si       3.93692389      -0.00596030       4.23024847
Si       2.13050287       2.21832672       1.67313563
Si       0.13366570       1.89849795       4.48370671
Si       2.97108017       3.78819435      -0.06466194
Si       0.21571931       3.73410593       1.55895411
Si       1.64696880       0.19190241       3.80810333
Si      -0.07131618      -1.25248194       7.73646953
Si      -0.82964688       0.07907833       1.68465402
Si       3.99589140       3.03536013       2.95058673
Si      -0.27340899       1.73656680       6.83916166
Si       3.57738201       0.17723141       6.65444637
Si       1.53130405      -1.13522153       5.85821614
12
Lattice="5.437660870571831 0.40383100768820746 0.11070093878804675 -0.7414021614659657 5.322125512010737 -0.8842526492872448 -1.036834257769573 -2.207807977677778 7.7459643021609255" Properties=species:S:1:pos:R:3 unique_starting_index=106 config_type=initial n_minim_iter=21 stress="-0.0004381499374629014 0.0003656579490019757 -0.0001497590944078749 0.0003656579490019757 0.000992999173795351 0.00042812424788992343 -0.0001497590944078749 0.00042812424788992343 -0.0005994718371985328" pbc="T T T"
Si       3.93390050       0.01086633       4.21027570
Si       2.12954389       2.22344233       1.66077570
Si       0.13178020       1.89894211       4.46070502
Si       2.95941982       3.79314533      -0.07011456
Si       0.21099060       3.74510081       1.55245528
Si       1.63620321       0.18812499       3.80366902
Si      -0.07576950      -1.25186785       7.71124475
Si      -0.83739605       0.09049128       1.67320623
Si       3.98108355       3.06886415       2.95172936
Si      -0.28842826       1.75125125       6.82769150
Si       3.56614694       0.17939749       6.64003019
Si       1.51912738      -1.14634348       5.82933662
