10
Lattice="6.6685705253596765 -2.049610735324016 -5.719486528236921e-15 -4.3640963216325614 5.442922038167039 -8.687662982272309e-15 -1.1522371018635444 -1.696655651421489 7.468304365513077" Properties=species:S:1:pos:R:3 unique_starting_index=26 config_type=initial n_minim_iter=1 energy=-1626.1433860880056 free_energy=-1626.1433860880056 pbc="T T T"
Si       0.87529416       3.16871652       1.34693314
Si       1.42917981       0.22459444       1.34693314
Si       1.47045122       0.28536610       6.12137123
Si      -1.47045144      -0.28536644       6.12137123
Si       3.47790864       1.31577220       1.13879168
Si      -1.17343466       2.07753877       1.13879168
Si      -1.21159227       2.02135214       6.32951269
Si       1.21159204      -2.02135248       6.32951269
Si       5.58938073      -2.55629178       3.73415219
Si       1.07918957       0.50668071       3.73415219
10
Lattice="6.578605901300287 -1.9901215679451574 -5.727997562503213e-15 -4.2756262401058915 5.381232174394765 -8.684624693033113e-15 -1.1514898305971832 -1.695555303224781 7.595724558065853" Properties=species:S:1:pos:R:3 unique_starting_index=26 config_type=initial n_minim_iter=2 stress="-0.008564145517163476 0.007661580740769459 -1.0313352691725337e-16 0.007661580740769459 -0.0024857097180280225 1.0058576192423822e-16 -1.0313352691725337e-16 1.0058576192423822e-16 0.008471579654078286" pbc="T T T"
Si       0.89495347       3.15447735       1.39110931
Si       1.40802596       0.23663292       1.39110931
Si       1.45071367       0.29949006       6.20461525
Si      -1.45071389      -0.29949040       6.20461525
Si       3.46125308       1.32339762       1.13924012
Si      -1.15827365       2.06771265       1.13924012
Si      -1.19761547       2.00978228       6.45648444
Si       1.19761524      -2.00978261       6.45648444
Si       5.51416700      -2.50601636       3.79786228
Si       1.06443868       0.51589446       3.79786228
10
Lattice="6.778178010634351 -2.1861835382685797 -5.589462796369192e-15 -4.531461359959672 5.494447520000165 -8.424778419386208e-15 -1.1233583253373232 -1.65413199086577 7.628436658224311" Properties=species:S:1:pos:R:3 unique_starting_index=26 config_type=initial n_minim_iter=3 stress="0.001557241785980771 0.01617094006646393 2.4091424458544782e-17 0.01617094006646393 0.014386711882486077 -1.7157652950880045e-16 2.4091424458544782e-17 -1.7157652950880045e-16 -0.012135113649741633" pbc="T T T"
Si       0.84694940       3.10314848       1.50868803
Si       1.39976703       0.20511517       1.50868803
Si       1.44883373       0.27736530       6.11974863
Si      -1.44883395      -0.27736564       6.11974863
Si       3.54613250       1.16867693       1.04233322
Si      -1.29941607       2.13958672       1.04233322
Si      -1.34460011       2.07305375       6.58610344
Si       1.34459989      -2.07305408       6.58610344
Si       5.73765539      -2.68805639       3.81421833
Si       1.04052240       0.50187252       3.81421833
10
Lattice="6.936976787975099 -2.428631306569844 -5.122816947348627e-15 -4.815379360485599 5.552658696045142 -7.891760745058629e-15 -1.060798713744733 -1.5620136947376253 7.8285582421418525" Properties=species:S:1:pos:R:3 unique_starting_index=26 config_type=initial n_minim_iter=4 stress="-0.0043920080442782965 0.006056889000563192 -3.330171102918275e-17 0.006056889000563192 0.0004133202787010981 -1.2779183101170668e-16 -3.330171102918275e-17 -1.2779183101170668e-16 -0.013491397834077627" pbc="T T T"
Si       0.73636744       2.97941872       1.62608733
Si       1.38522978       0.14460836       1.62608733
Si       1.43715706       0.22107068       6.20247092
Si      -1.43715727      -0.22107099       6.20247092
Si       3.56020351       0.95465281       0.99730255
Si      -1.43860629       2.16937426       0.99730255
Si      -1.48617207       2.09933421       6.83125570
Si       1.48617186      -2.09933453       6.83125570
Si       5.92766713      -2.88439960       3.91427912
Si       1.00930946       0.45576798       3.91427912
10
Lattice="7.089297008951036 -2.5526507916022196 -5.331065324471762e-15 -4.986825148854295 5.648516006859131 -7.456277454022285e-15 -1.0512359300483531 -1.547932607628431 8.059360053889598" Properties=species:S:1:pos:R:3 unique_starting_index=26 config_type=initial n_minim_iter=5 stress="0.015152937036610192 -0.002788312553934433 1.2475962494381126e-16 -0.002788312553934433 0.012940785338354754 -1.267296796580579e-16 1.2475962494381126e-16 -1.267296796580579e-16 0.0173238578565775" pbc="T T T"
Si       0.68986069       2.98065392       1.66469173
Si       1.41261097       0.11521098       1.66469173
Si       1.46501650       0.19237751       6.39466833
Si      -1.46501670      -0.19237782       6.39466833
Si       3.58828007       0.90480755       1.03303610
Si      -1.48580842       2.19105736       1.03303610
Si      -1.53329496       2.12113398       7.02632396
Si       1.53329475      -2.12113429       7.02632396
Si       6.04854244      -2.97677644       4.02968003
Si       1.04075436       0.42412534       4.02968003
10
Lattice="7.000167171806633 -2.51480069114779 -4.8326294392401186e-15 -4.918777173549509 5.5796231115017845 -7.693209588471334e-15 -1.0406949991285428 -1.5324112101769725 7.961239192942421" Properties=species:S:1:pos:R:3 unique_starting_index=26 config_type=initial n_minim_iter=6 stress="0.0006165685674802343 -0.006393454089622954 2.7881855117915603e-16 -0.006393454089622954 -0.0044557789719382075 -5.0447865411516824e-17 2.7881855117915603e-16 -5.0447865411516824e-17 0.006363587225268425" pbc="T T T"
Si       0.67677831       2.95510657       1.62792114
Si       1.40461149       0.10971554       1.62792114
Si       1.45663412       0.18631826       6.33331806
Si      -1.45663433      -0.18631857       6.33331806
Si       3.53411765       0.90841971       1.03479924
Si      -1.45272786       2.15640241       1.03479924
Si      -1.49942503       2.08764137       6.92643996
Si       1.49942482      -2.08764168       6.92643996
Si       5.95072587      -2.92168699       3.98061960
Si       1.04944110       0.40688599       3.98061960
10
Lattice="6.978810007929715 -2.527765033817269 -4.7423560486339106e-15 -4.922952948593712 5.554990500343052 -7.585923042507223e-15 -1.0279285296679825 -1.513612733262866 7.951463192918066" Properties=species:S:1:pos:R:3 unique_starting_index=26 config_type=initial n_minim_iter=7 stress="-0.0013676117713454846 -0.0026195714024781704 2.6766234282592234e-16 -0.0026195714024781704 -0.003445890018350982 -2.0725587797209641e-16 2.6766234282592234e-16 -2.0725587797209641e-16 -0.007262818514768113" pbc="T T T"
Si       0.66080234       2.92942495       1.66689101
Si       1.39505452       0.09780021       1.66689101
Si       1.45141943       0.18079688       6.28457219
Si      -1.45141963      -0.18079719       6.28457219
Si       3.52632385       0.86905223       0.99557613
Si      -1.47046699       2.15817293       0.99557613
Si      -1.52037823       2.08467922       6.95588707
Si       1.52037803      -2.08467952       6.95588707
Si       5.91162867      -2.90886944       3.97573160
Si       1.06718113       0.38110410       3.97573160
10
Lattice="6.951671942544409 -2.536797372789798 -4.545258089350253e-15 -4.92134218620385 5.526434184321982 -7.754433664731814e-15 -1.015164878170259 -1.494818405766066 8.066039968519881" Properties=species:S:1:pos:R:3 unique_starting_index=26 config_type=initial n_minim_iter=8 stress="-0.0008393442026348107 -0.0014471314816407246 1.4678713486302147e-16 -0.0014471314816407246 -0.0019874487650862523 -1.727792862419243e-16 1.4678713486302147e-16 -1.727792862419243e-16 -0.005756466841421476" pbc="T T T"
Si       0.64049845       2.90771675       1.72367726
Si       1.38983111       0.08191977       1.72367726
Si       1.45149120       0.17271353       6.34236271
Si      -1.45149140      -0.17271383       6.34236271
Si       3.50848607       0.83635075       0.97852332
Si      -1.47815652       2.15328576       0.97852332
Si      -1.53143445       2.07483463       7.08751665
Si       1.53143425      -2.07483493       7.08751665
Si       5.85659771      -2.88522787       4.03301999
Si       1.09507404       0.34843020       4.03301999
10
Lattice="6.914106191913941 -2.4950694420434436 -4.5605888651109845e-15 -4.8687029080656625 5.5069018464718 -7.544934306804983e-15 -1.0227016419241186 -1.5059162022141521 8.102102423337884" Properties=species:S:1:pos:R:3 unique_starting_index=26 config_type=initial n_minim_iter=9 stress="-2.141499871243207e-05 0.00017703629352207813 2.272911661537009e-16 0.00017703629352207813 0.00011903953419665875 -1.69815998429905e-16 2.272911661537009e-16 -1.69815998429905e-16 -0.0002789718480494753" pbc="T T T"
Si       0.65454907       2.92491733       1.72650370
Si       1.39085401       0.08691477       1.72650370
Si       1.45476210       0.18101868       6.37559873
Si      -1.45476230      -0.18101898       6.37559873
Si       3.49729947       0.86708524       0.98763741
Si      -1.45189639       2.14474687       0.98763741
Si      -1.50627755       2.06467125       7.11446502
Si       1.50627735      -2.06467155       7.11446502
Si       5.81090648      -2.84608984       4.05105121
Si       1.10319951       0.35102009       4.05105121
10
Lattice="6.869197607103961 -2.457825076237547 -4.220018905911937e-15 -4.817523734433562 5.478890849341136 -7.769316844558824e-15 -1.0258369363351778 -1.5105328865517682 8.203769565081627" Properties=species:S:1:pos:R:3 unique_starting_index=26 config_type=initial n_minim_iter=10 stress="0.0017051179980590186 -0.0006446354678920319 2.824083847165571e-16 -0.0006446354678920319 0.0011936862925128109 -1.1941520565049175e-16 2.824083847165571e-16 -1.1941520565049175e-16 0.0058894692386963635" pbc="T T T"
Si       0.65824306       2.94393540       1.76381752
Si       1.39343061       0.07713007       1.76381752
Si       1.46794270       0.18684824       6.43995205
Si      -1.46794290      -0.18684855       6.43995205
Si       3.46934425       0.88932628       0.98666885
Si      -1.41767058       2.13173919       0.98666885
Si      -1.47843103       2.04227014       7.21710072
Si       1.47843083      -2.04227044       7.21710072
Si       5.75736458      -2.80635536       4.10188479
Si       1.11183283       0.34852998       4.10188479
10
Lattice="6.762724085689244 -2.3445122715275404 -4.1730080006097854e-15 -4.672935294494355 5.421701816217252 -7.752024245768497e-15 -1.044894395597422 -1.5385947723448277 8.219885623456266" Properties=species:S:1:pos:R:3 unique_starting_index=26 config_type=initial n_minim_iter=11 stress="0.001201784119827136 0.0021275136444907877 2.4596036148743554e-16 0.0021275136444907877 0.0028896805915041694 -1.6506394513595019e-16 2.4596036148743554e-16 -1.6506394513595019e-16 1.1609360843786236e-05" pbc="T T T"
Si       0.69645170       3.00519849       1.79404912
Si       1.39333689       0.07199075       1.79404912
Si       1.49174278       0.21689227       6.42583651
Si      -1.49174299      -0.21689258       6.42583651
Si       3.42273398       0.96514492       0.96869000
Si      -1.33294539       2.11204432       0.96869000
Si      -1.40982567       1.99883901       7.25119563
Si       1.40982546      -1.99883932       7.25119563
Si       5.67049723      -2.72685967       4.10994281
Si       1.09222666       0.38234709       4.10994281
10
Lattice="6.7633625899313765 -2.351738051714216 -4.348976819295808e-15 -4.679887354536794 5.419630959356024 -7.640672173479072e-15 -1.04173761769727 -1.533946453820877 8.220941580132" Properties=species:S:1:pos:R:3 unique_starting_index=26 config_type=initial n_minim_iter=12 stress="-0.00036259646336071636 4.4024475876750986e-05 2.381052986724084e-16 4.4024475876750986e-05 -0.00032766895176034445 -1.286484509066806e-16 2.381052986724084e-16 -1.286484509066806e-16 -0.0007051203404963554" pbc="T T T"
Si       0.68965732       3.00360078       1.79573520
Si       1.39381771       0.06429182       1.79573520
Si       1.49591973       0.21463585       6.42520638
Si      -1.49591994      -0.21463615       6.42520638
Si       3.41526759       0.95632967       0.96786661
Si      -1.33179256       2.11156293       0.96786661
Si      -1.41210989       1.99329660       7.25307498
Si       1.41210969      -1.99329691       7.25307498
Si       5.67536403      -2.73356090       4.11047079
Si       1.08799836       0.38182254       4.11047079
10
Lattice="6.727153452687789 -2.3228202444482653 -4.3137684621363436e-15 -4.639655774399844 5.3966361521883215 -7.440112483733562e-15 -1.043748839143951 -1.5369079538700015 8.259889735729882" Properties=species:S:1:pos:R:3 unique_starting_index=26 config_type=initial n_minim_iter=13 stress="-0.0038901308566344985 -0.004259495199488572 2.772026558972063e-16 -0.004259495199488572 -0.00726946848719046 -8.029028934499261e-17 2.772026558972063e-16 -8.029028934499261e-17 0.0012035780454765362" pbc="T T T"
Si       0.68932275       3.04531424       1.81330945
Si       1.39817473       0.02850136       1.81330945
Si       1.53280604       0.22674440       6.44658029
Si      -1.53280624      -0.22674471       6.44658029
Si       3.37747734       0.95594075       0.96826644
Si      -1.28997987       2.11787485       0.96826644
Si      -1.40054819       1.95506428       7.29162330
Si       1.40054798      -1.95506459       7.29162330
Si       5.65283417      -2.71609669       4.12994487
Si       1.07431908       0.39327613       4.12994487
10
Lattice="6.663085120933245 -2.2221811347180145 -4.244573940284175e-15 -4.522484102458324 5.374191089578987 -7.63996222586545e-15 -1.0703005092374376 -1.5760049774304594 8.248717354188376" Properties=species:S:1:pos:R:3 unique_starting_index=26 config_type=initial n_minim_iter=14 stress="-0.0027744950961163663 -0.0019272922887192693 3.963008519799811e-16 -0.0019272922887192693 -0.004303542800439426 -5.130414605884101e-17 3.963008519799811e-16 -5.130414605884101e-17 0.0012556078867131284" pbc="T T T"
Si       0.73232920       3.19624824       1.81922283
Si       1.40827161      -0.04423860       1.81922283
Si       1.63069517       0.28327748       6.42949453
Si      -1.63069538      -0.28327779       6.42949453
Si       3.33020804       0.98296315       0.96972964
Si      -1.18960723       2.16904649       0.96972964
Si      -1.38455191       1.88199273       7.27898772
Si       1.38455170      -1.88199305       7.27898772
Si       5.59411704      -2.64765613       4.12435868
Si       1.06896788       0.42547468       4.12435868
10
Lattice="6.7218602456312375 -2.2280064186842568 -4.135237217219491e-15 -4.5495711286086005 5.426676727908783 -7.701842505355729e-15 -1.0861445585112968 -1.5993351546122359 8.142139565049085" Properties=species:S:1:pos:R:3 unique_starting_index=26 config_type=initial n_minim_iter=15 stress="-0.00015544525846196506 0.0007873125428300526 3.362499324002404e-16 0.0007873125428300526 0.00046918155255253996 6.888060291351022e-17 3.362499324002404e-16 6.888060291351022e-17 -0.0004527804856331719" pbc="T T T"
Si       0.75701311       3.31299688       1.77780961
Si       1.41527579      -0.11432689       1.77780961
Si       1.71427147       0.32594074       6.36432996
Si      -1.71427168      -0.32594106       6.36432996
Si       3.34647107       0.93622524       0.98165151
Si      -1.17418217       2.26244475       0.98165151
Si      -1.44983722       1.85654591       7.16048806
Si       1.44983701      -1.85654623       7.16048806
Si       5.64916134      -2.66799284       4.07106979
Si       1.07269870       0.43998611       4.07106979
10
Lattice="6.894117855201873 -2.356029337024294 -4.255507789631858e-15 -4.732089787364315 5.539590371377163 -7.445289770219813e-15 -1.0810140339187573 -1.5917805171764075 7.993979801018847" Properties=species:S:1:pos:R:3 unique_starting_index=26 config_type=initial n_minim_iter=16 stress="0.0013526474244492537 0.0038808204880757 3.3919213724868085e-16 0.0038808204880757 0.004431557506177016 8.997402864654608e-17 3.3919213724868085e-16 8.997402864654608e-17 -0.0036465375462318515" pbc="T T T"
Si       0.74588377       3.33238768       1.71020198
Si       1.41614409      -0.14882697       1.71020198
Si       1.74153018       0.33030024       6.28377782
Si      -1.74153039      -0.33030056       6.28377782
Si       3.43391804       0.82106150       0.99992436
Si      -1.27189018       2.36249922       0.99992436
Si      -1.58399996       1.90292122       6.99405544
Si       1.58399975      -1.90292154       6.99405544
Si       5.80232399      -2.77752850       3.99698990
Si       1.09179366       0.42149884       3.99698990
10
Lattice="6.9725652596874435 -2.421289235952596 -4.059021871070543e-15 -4.821677215686148 5.588446715543867 -7.509290397195597e-15 -1.0754440220006252 -1.5835787397956078 7.9644281212017445" Properties=species:S:1:pos:R:3 unique_starting_index=26 config_type=initial n_minim_iter=17 stress="0.00261997630585398 0.0023475584603921728 4.144981251700383e-16 0.0023475584603921728 0.0044824487993263065 1.1150970049437338e-16 4.144981251700383e-16 1.1150970049437338e-16 -0.002150679331215588" pbc="T T T"
Si       0.73690060       3.35266669       1.69522856
Si       1.41398723      -0.18550953       1.69522856
Si       1.76926263       0.33762934       6.26919956
Si      -1.76926284      -0.33762966       6.26919956
Si       3.45964203       0.75395299       1.01111389
Si      -1.30875419       2.41320417       1.01111389
Si      -1.65029497       1.91028938       6.95331424
Si       1.65029476      -1.91028970       6.95331424
Si       5.87922468      -2.83574574       3.98221406
Si       1.09334037       0.41445619       3.98221406
10
Lattice="7.085114152302017 -2.5456607557600637 -4.107367126744317e-15 -4.978785308860534 5.647205333865734 -6.944975647084834e-15 -1.0531644217207192 -1.5507722890528057 7.967526624820386" Properties=species:S:1:pos:R:3 unique_starting_index=26 config_type=initial n_minim_iter=18 stress="0.0006916473954299606 -0.005237676090762459 3.091823192735693e-16 -0.005237676090762459 -0.0034637454577656304 3.548030386140898e-16 3.091823192735693e-16 3.548030386140898e-16 0.004568770155141572" pbc="T T T"
Si       0.72842664       3.35836916       1.69106467
Si       1.37790200      -0.25682489       1.69106467
Si       1.79996749       0.36466162       6.27646196
Si      -1.79996770      -0.36466193       6.27646196
Si       3.47420289       0.61991166       1.05045153
Si      -1.36787425       2.48163261       1.05045153
Si      -1.75798066       1.90720547       6.91707510
Si       1.75798046      -1.90720578       6.91707510
Si       6.00089491      -2.94234325       3.98376332
Si       1.08421904       0.39668218       3.98376332
10
Lattice="6.942661242607825 -2.4388545196625584 -4.115063563470457e-15 -4.826978241345458 5.5541729857166535 -6.835621635946714e-15 -1.0578415006311608 -1.557659233027019 8.015469438169196" Properties=species:S:1:pos:R:3 unique_starting_index=26 config_type=initial n_minim_iter=19 stress="-0.0038063951365276245 -0.002542244223140755 5.237731445319313e-16 -0.002542244223140755 -0.0058233246474141504 1.7466645151746599e-16 5.237731445319313e-16 1.7466645151746599e-16 0.0008788644266629764" pbc="T T T"
Si       0.81164291       3.36548242       1.73548531
Si       1.30403989      -0.25016427       1.73548531
Si       1.77121803       0.43775008       6.27998413
Si      -1.77121824      -0.43775039       6.27998413
Si       3.38889136       0.67722448       1.06928193
Si      -1.27320857       2.43809368       1.06928193
Si      -1.67792640       1.84215140       6.94618751
Si       1.67792619      -1.84215171       6.94618751
Si       5.86405698      -2.84438189       4.00773472
Si       1.07860406       0.40552706       4.00773472
10
Lattice="6.934022256627627 -2.4344980420739186 -3.854730896361876e-15 -4.819743275567138 5.547749104807661 -6.77841354017622e-15 -1.0571394905302214 -1.5566255313668422 8.029724497845065" Properties=species:S:1:pos:R:3 unique_starting_index=26 config_type=initial n_minim_iter=20 stress="-0.002570939688944736 -0.0005594251506900199 4.891656351653834e-16 -0.0005594251506900199 -0.003014768446737795 2.8073650066542083e-16 4.891656351653834e-16 2.8073650066542083e-16 -0.0021384285027906138" pbc="T T T"
Si       0.84520658       3.37455043       1.75539835
Si       1.26907219      -0.26129968       1.75539835
Si       1.76797311       0.47332609       6.27432615
Si      -1.76797332      -0.47332640       6.27432615
Si       3.37295044       0.65899837       1.07819663
Si      -1.25867166       2.45425238       1.07819663
Si      -1.68828830       1.82164690       6.95152787
Si       1.68828810      -1.82164722       6.95152787
Si       5.84868116      -2.83469506       4.01486225
Si       1.08534089       0.40019670       4.01486225
10
Lattice="6.936202639059231 -2.4300254887310624 -3.822189162454278e-15 -4.816389850411552 5.55142501839188 -6.87744088384347e-15 -1.0599063943238165 -1.5606997648303813 8.070600671940781" Properties=species:S:1:pos:R:3 unique_starting_index=26 config_type=initial n_minim_iter=21 stress="0.0021051505555575814 0.001300936655168851 5.248789788366382e-16 0.001300936655168851 0.0031372691489302304 1.8527168948232602e-16 5.248789788366382e-16 1.8527168948232602e-16 -0.0031665250804926077" pbc="T T T"
Si       0.89508032       3.43613294       1.78855902
Si       1.22473226      -0.31473373       1.78855902
Si       1.80405938       0.53831868       6.28204166
Si      -1.80405959      -0.53831900       6.28204166
Si       3.33957253       0.60178153       1.09599399
Si      -1.21975995       2.51961769       1.09599399
Si      -1.73193286       1.76544907       6.97460669
Si       1.73193265      -1.76544939       6.97460669
Si       5.84117874      -2.82662335       4.03530034
Si       1.09502369       0.39659754       4.03530034
