8
Lattice="5.762090000000002 -3.2450675027150306e-16 5.496236244042671e-16 -1.0600401234553327 5.663744000638167 -5.496236244042648e-16 -2.6074139867304598 -2.619017377385193 4.677065331477747" Properties=species:S:1:pos:R:3 unique_starting_index=38 config_type=initial n_minim_iter=1 pbc="T T T"
Si       2.94962687       3.37467305       1.40455218
Si       0.16702332       0.90109835       3.27251315
Si      -0.85499120      -0.32994529       3.27251315
Si       1.92761235       2.14362941       1.40455218
Si       1.54133176       0.13554386       3.56438307
Si       1.94430992       4.58468759       1.11268226
Si       0.55330392       2.90918390       1.11268226
Si       0.15032575      -1.53995983       3.56438307
8
Lattice="5.82545338186238 -0.0130538034267341 0.009941215769843482 -1.0845279617181185 5.723624429178359 -0.009941215769843432 -2.62208413496991 -2.6463887791088787 4.6811756198960115" Properties=species:S:1:pos:R:3 unique_starting_index=38 config_type=initial n_minim_iter=2 pbc="T T T"
Si       2.97976690       3.40024475       1.40684632
Si       0.17194361       0.90805693       3.27432930
Si      -0.86092583      -0.33606176       3.27432930
Si       1.94689745       2.15612607       1.40684632
Si       1.56635824       0.12737286       3.57095808
Si       1.95587970       4.62723895       1.11021753
Si       0.55248283       2.93681013       1.11021753
Si       0.16296136      -1.56305596       3.57095808
8
Lattice="6.279515587883971 -0.10789464315081898 0.08442766477701846 -1.261282992259172 6.152489129282242 -0.08442766477701828 -2.7239847215950497 -2.843913113167415 4.702575437688552" Properties=species:S:1:pos:R:3 unique_starting_index=38 config_type=initial n_minim_iter=3 pbc="T T T"
Si       3.19719317       3.58184977       1.42121096
Si       0.20854892       0.95765745       3.28136446
Si      -0.90294555      -0.38116716       3.28136446
Si       2.08569870       2.24302516       1.42121096
Si       1.74858040       0.06614638       3.61315965
Si       2.03758170       4.93158686       1.08941577
Si       0.54566722       3.13453623       1.08941577
Si       0.25666592      -1.73090425       3.61315965
8
Lattice="6.738792845158634 -0.2852841630303568 0.1802919566993336 -1.5201371839666038 6.571293556489408 -0.18029195669933318 -2.7733723835368314 -3.0068146306149095 4.779301641182399" Properties=species:S:1:pos:R:3 unique_starting_index=38 config_type=initial n_minim_iter=4 pbc="T T T"
Si       3.36987501       3.69868271       1.45337961
Si       0.24223211       0.98598406       3.32592200
Si      -0.92459204      -0.41948663       3.32592200
Si       2.20305086       2.29321202       1.45337961
Si       1.94046587      -0.03039107       3.70274978
Si       2.05842648       5.18095092       1.07655183
Si       0.50481710       3.30958715       1.07655183
Si       0.38685650      -1.90175484       3.70274978
8
Lattice="7.139703670463963 -0.2777054550115987 0.2839597043321607 -1.586442586811303 6.966755969641197 -0.28395970433215967 -2.874087303450637 -3.263616488501738 4.761847384067934" Properties=species:S:1:pos:R:3 unique_starting_index=38 config_type=initial n_minim_iter=5 pbc="T T T"
Si       3.63028020       3.92767821       1.45662029
Si       0.31869798       1.02727074       3.30522704
Si      -0.95110674      -0.50224279       3.30522704
Si       2.36047548       2.39816468       1.45662029
Si       2.12335704      -0.07918928       3.72417524
Si       2.21070548       5.49798254       1.03767209
Si       0.55581643       3.50462471       1.03767209
Si       0.46846798      -2.07254711       3.72417524
8
Lattice="7.321832790357639 -0.24000315151921736 0.3924329968254606 -1.5828897057424007 7.152712569518659 -0.39243299682545885 -2.885592213457947 -3.4429713004657807 4.628574801791669" Properties=species:S:1:pos:R:3 unique_starting_index=38 config_type=initial n_minim_iter=6 pbc="T T T"
Si       3.79013497       4.04687687       1.42171421
Si       0.39494910       1.02697109       3.20686051
Si      -0.93678442      -0.57713732       3.20686051
Si       2.45840145       2.44276846       1.42171421
Si       2.24545479      -0.12636875       3.65983110
Si       2.31604626       5.65362095       0.96874362
Si       0.60789576       3.59610830       0.96874362
Si       0.53730430      -2.18388140       3.65983110
8
Lattice="7.434299830052636 -0.18334428140502865 0.5334157874276343 -1.547888211310826 7.273683466712688 -0.5334157874276323 -2.847802622441241 -3.624373480271998 4.401547908206607" Properties=species:S:1:pos:R:3 unique_starting_index=38 config_type=initial n_minim_iter=7 pbc="T T T"
Si       3.93443555       4.13434601       1.35840362
Si       0.49216823       1.00349813       3.04314418
Si      -0.89582686      -0.66837885       3.04314418
Si       2.54644045       2.46246904       1.35840362
Si       2.36542291      -0.18789574       3.53526593
Si       2.41875722       5.75645008       0.86628187
Si       0.67318577       3.65386290       0.86628187
Si       0.61985147      -2.29048292       3.53526593
8
Lattice="7.490769663510498 -0.1929411672548791 0.7693542350054351 -1.5677099416008902 7.327423966497131 -0.7693542350054339 -2.6774835696753225 -3.8030571124593475 4.026745221645441" Properties=species:S:1:pos:R:3 unique_starting_index=38 config_type=initial n_minim_iter=8 pbc="T T T"
Si       4.04085871       4.12311197       1.25508093
Si       0.63186653       0.92735455       2.77166414
Si      -0.79528287      -0.79168482       2.77166414
Si       2.61370931       2.40407261       1.25508093
Si       2.52341914      -0.32455770       3.33041630
Si       2.46232867       5.75206823       0.69632876
Si       0.72215670       3.65598485       0.69632876
Si       0.78324717      -2.42064107       3.33041630
8
Lattice="7.559963387312634 -0.389575026135836 0.8163667789842993 -1.7737171303259704 7.359262372010146 -0.8163667789842987 -2.581259534690793 -3.7437533575155557 4.025115700401735" Properties=species:S:1:pos:R:3 unique_starting_index=38 config_type=initial n_minim_iter=9 pbc="T T T"
Si       3.98767216       4.02125362       1.26127003
Si       0.63775530       0.91564088       2.76384550
Si      -0.78268579      -0.79531816       2.76384550
Si       2.56723107       2.31029459       1.26127003
Si       2.56572461      -0.41360998       3.34545676
Si       2.32642400       5.67177720       0.67965878
Si       0.63926175       3.63954545       0.67965878
Si       0.87856237      -2.44584173       3.34545676
8
Lattice="7.518966325358953 -0.4276057731384151 0.8276497486705657 -1.8035566303270045 7.311968598148294 -0.8276497486705657 -2.5362635894030032 -3.7090424902401242 3.996867235574643" Properties=species:S:1:pos:R:3 unique_starting_index=38 config_type=initial n_minim_iter=10 pbc="T T T"
Si       3.95232762       3.97824213       1.25430199
Si       0.64697613       0.90769772       2.74256508
Si      -0.77318188      -0.80292033       2.74256508
Si       2.53216961       2.26762408       1.25430199
Si       2.55660931      -0.43421593       3.32719388
Si       2.28200606       5.60841299       0.66967319
Si       0.62253643       3.60953773       0.66967319
Si       0.89713969      -2.43309118       3.32719388
8
Lattice="7.517737313336333 -0.465971425539822 0.8382208597795366 -1.841041367907093 7.30370251060404 -0.8382208597795366 -2.5096887475045584 -3.6917189887948902 3.9905261305396795" Properties=species:S:1:pos:R:3 unique_starting_index=38 config_type=initial n_minim_iter=11 pbc="T T T"
Si       3.93666740       3.95617318       1.25429504
Si       0.65473966       0.90556831       2.73623092
Si      -0.76966057      -0.81015962       2.73623092
Si       2.51226717       2.24044525       1.25429504
Si       2.56012303      -0.45306263       3.32555194
Si       2.25069571       5.57909130       0.66497402
Si       0.60688380       3.59907619       0.66497402
Si       0.91631112      -2.43307774       3.32555194
8
Lattice="7.502127686311551 -0.5746478386738714 0.8679197633179483 -1.9449912458056342 7.268366323593926 -0.8679197633179494 -2.429122514338391 -3.6369696602630843 3.9709421610112847" Properties=species:S:1:pos:R:3 unique_starting_index=38 config_type=initial n_minim_iter=12 pbc="T T T"
Si       3.88379282       3.88562465       1.25375674
Si       0.67568869       0.89536685       2.71718525
Si      -0.75577929      -0.82887437       2.71718525
Si       2.45232484       2.16138344       1.25375674
Si       2.56722890      -0.50539601       3.31939474
Si       2.15895500       5.48718497       0.65154724
Si       0.56078463       3.56214630       0.65154724
Si       0.96905853      -2.43043468       3.31939474
8
Lattice="7.4697849949468935 -0.7629978683365186 0.9153068075516764 -2.1241765414144793 7.20192527305888 -0.9153068075516786 -2.290413280658082 -3.5369253144568114 3.9397820361039106" Properties=species:S:1:pos:R:3 unique_starting_index=38 config_type=initial n_minim_iter=13 pbc="T T T"
Si       3.78699897       3.77330694       1.25558494
Si       0.72180419       0.87960655       2.68419691
Si      -0.73180423      -0.87130341       2.68419691
Si       2.33339056       2.02239699       1.25558494
Si       2.57768123      -0.59073486       3.30820966
Si       2.00033104       5.32701255       0.63157219
Si       0.47751352       3.49273839       0.63157219
Si       1.05486371      -2.42500902       3.30820966
8
Lattice="7.443342972586529 -0.7386964033478391 0.8734236064203146 -2.0954253623833226 7.180405248629984 -0.8734236064203164 -2.3234900163814425 -3.511814205524754 3.935593640376979" Properties=species:S:1:pos:R:3 unique_starting_index=38 config_type=initial n_minim_iter=14 pbc="T T T"
Si       3.78497465       3.85114550       1.26023904
Si       0.76560990       0.91704768       2.67535442
Si      -0.76054747      -0.92124942       2.67535442
Si       2.25881728       2.01284840       1.26023904
Si       2.54505494      -0.55387632       3.28655045
Si       2.01179510       5.32961646       0.64904301
Si       0.47937223       3.48377240       0.64904301
Si       1.01263207      -2.39972038       3.28655045
8
Lattice="7.357664412865542 -0.8834223764140805 0.9359966864069638 -2.2219190739821233 7.069564083886046 -0.9359966864069663 -2.168147476350267 -3.424923387080654 3.861840692671677" Properties=species:S:1:pos:R:3 unique_starting_index=38 config_type=initial n_minim_iter=15 pbc="T T T"
Si       3.66341933       3.68245500       1.24242158
Si       0.77750339       0.85342421       2.61941893
Si      -0.69582191      -0.92123526       2.61941893
Si       2.19009403       1.90779553       1.24242158
Si       2.55936979      -0.62638812       3.25078168
Si       1.88105771       5.16167083       0.61105882
Si       0.40822762       3.38760785       0.61105882
Si       1.08653971      -2.40045109       3.25078168
8
Lattice="7.443309130903787 -0.866800538859598 0.9102726524213317 -2.2213368207986033 7.156804924051464 -0.9102726524213343 -2.2353378716133965 -3.456866034706472 3.9066708900809965" Properties=species:S:1:pos:R:3 unique_starting_index=38 config_type=initial n_minim_iter=16 pbc="T T T"
Si       3.71281478       3.75992909       1.25623007
Si       0.77737758       0.88428670       2.65044064
Si      -0.72618079      -0.92678930       2.65044064
Si       2.20925641       1.94885308       1.25623007
Si       2.56942997      -0.60419056       3.27652811
Si       1.92006222       5.24756298       0.63014260
Si       0.41720402       3.43733035       0.63014260
Si       1.06657177      -2.41442319       3.27652811
