16
Lattice="7.430329963364408 -5.956010859726357e-08 -2.076800212055948e-15 -3.3511434182592215 6.631714797450871 9.59045716959654e-08 -2.6234938647849013 -2.9566985495068745 6.291662498358511" Properties=species:S:1:pos:R:3 unique_starting_index=82 config_type=initial n_minim_iter=1 pbc="T T T"
Si       0.00721457       3.10792345       1.62469229
Si       1.16488973       5.31194578       1.43664522
Si      -3.71835402       3.74522584       4.77052357
Si       2.26696446       1.71794484       4.58247644
Si       1.41013689       4.59203594       2.84433991
Si      -0.87673865       4.22070320       0.88959459
Si      -4.41022330       1.82374258       5.99017114
Si       2.32012768       4.03229800       4.03542585
Si       4.33877347       4.20222950       0.42346229
Si      -1.83130325      -1.17416463       4.76061350
Si       4.68885710      -0.61431677       3.56929349
Si      -2.18138688       3.64238163       1.61478230
Si      -3.36234786       1.20788041       4.32030789
Si       3.83340300       3.07278912       3.00823894
Si       2.43240688       3.93454583       1.17447666
Si      -1.96135174       0.34612369       6.15407017
16
Lattice="7.647409572139763 -0.047129508628613426 0.0431196865809231 -3.491112162270315 6.8042068041406445 -0.04311958886342259 -2.6448744681007392 -3.029944117470662 6.504693025424264" Properties=species:S:1:pos:R:3 unique_starting_index=82 config_type=initial n_minim_iter=2 pbc="T T T"
Si      -0.00167646       3.17073285       1.67188020
Si       1.17272058       5.42258218       1.47177625
Si      -3.82054181       3.83713817       4.90266690
Si       2.34671146       1.72623273       4.74568257
Si       1.43754664       4.67575187       2.93428354
Si      -0.92256345       4.32110808       0.90024566
Si      -4.51469862       1.87382673       6.16507019
Si       2.38480734       4.09308911       4.17415203
Si       4.43818948       4.26921084       0.44752209
Si      -1.84855128      -1.20529090       4.92174368
Si       4.84887279      -0.66808162       3.72142839
Si      -2.25923459       3.73200156       1.64783738
Si      -3.44223161       1.24109271       4.44535137
Si       3.94382503       3.10718946       3.12275469
Si       2.48596609       4.00392266       1.21456472
Si      -1.98437266       0.34435951       6.35354134
16
Lattice="8.177864035676016 -0.1492314463005722 0.13078762439195332 -3.8214797089759402 7.231598929091984 -0.1307875219702677 -2.717304941086034 -3.2095740441702643 7.0165321865862085" Properties=species:S:1:pos:R:3 unique_starting_index=82 config_type=initial n_minim_iter=3 pbc="T T T"
Si      -0.02124820       3.33146274       1.78975488
Si       1.19733450       5.70711504       1.55929574
Si      -4.07417896       4.06864195       5.23262720
Si       2.53296032       1.76036178       5.13295561
Si       1.50567261       4.89385679       3.15182676
Si      -1.02790283       4.57425745       0.93259435
Si      -4.77999167       2.00118194       6.59469902
Si       2.54045652       4.25735825       4.50625427
Si       4.68800285       4.44709354       0.50449221
Si      -1.90605621      -1.27728096       5.30853017
Si       5.23187592      -0.78684732       4.07815207
Si      -2.44992928       3.95665990       1.73487032
Si      -3.64552029       1.32457503       4.75342905
Si       4.21195012       3.20800818       3.39266957
Si       2.62121398       4.18647452       1.31055679
Si      -2.05478416       0.34610870       6.83554183
16
Lattice="8.43466261387565 -0.22115334612951076 0.17727326319638614 -4.001489800442391 7.4283592822590885 -0.1772731589693495 -2.739993862336695 -3.28165366277769 7.2764724210427145" Properties=species:S:1:pos:R:3 unique_starting_index=82 config_type=initial n_minim_iter=4 pbc="T T T"
Si      -0.03983031       3.40008481       1.84920162
Si       1.19348644       5.82436111       1.60433240
Si      -4.20676146       4.17903729       5.39880123
Si       2.62042372       1.76375496       5.33120520
Si       1.52746514       4.98100208       3.26442776
Si      -1.09383090       4.68633132       0.94733383
Si      -4.91089720       2.06718799       6.81402732
Si       2.60453758       4.31849175       4.67420669
Si       4.79688382       4.50887079       0.53058099
Si      -1.92593336      -1.30776909       5.50562529
Si       5.41968809      -0.85905011       4.25745378
Si      -2.54873763       4.06015181       1.77875250
Si      -3.74476563       1.36991964       4.90917358
Si       4.33388746       3.23474129       3.52993938
Si       2.67572627       4.25468098       1.35957402
Si      -2.08660444       0.34997996       7.07953894
16
Lattice="9.04108994283458 -0.4021244047612703 0.3743555749481635 -4.4365140011431095 7.887988019136658 -0.37435546669131814 -2.715217860719285 -3.4889375750414477 7.905571456518426" Properties=species:S:1:pos:R:3 unique_starting_index=82 config_type=initial n_minim_iter=5 pbc="T T T"
Si      -0.06971671       3.54614127       1.97242590
Si       1.19416497       6.08035870       1.69236390
Si      -4.47002127       4.40534000       5.73803388
Si       2.87925167       1.73222240       5.83232738
Si       1.60317428       5.15700777       3.52097688
Si      -1.24154597       4.93870491       0.94710950
Si      -5.15326277       2.18573725       7.28658480
Si       2.79967323       4.42103785       5.08707304
Si       5.04801933       4.64072579       0.60909537
Si      -1.91065217      -1.41145365       5.98224544
Si       5.90227401      -1.05813102       4.74905883
Si      -2.76490685       4.28740317       1.84228198
Si      -3.93158259       1.45024249       5.24574943
Si       4.65219012       3.26558531       3.89058875
Si       2.81060614       4.39834888       1.48014150
Si      -2.08999861       0.31747893       7.65619668
16
Lattice="9.311435529364497 -0.4024643984751845 0.4236663825591738 -4.5587456597216125 8.129123403799518 -0.4236662708200644 -2.7687818046606973 -3.6219405886545566 8.140005903173462" Properties=species:S:1:pos:R:3 unique_starting_index=82 config_type=initial n_minim_iter=6 pbc="T T T"
Si      -0.05712119       3.64930518       2.02335712
Si       1.24566054       6.26967288       1.72991393
Si      -4.57025722       4.52203432       5.88152692
Si       2.99001477       1.77500315       6.01175004
Si       1.67239688       5.29947171       3.61663573
Si      -1.25845531       5.09596362       0.95233469
Si      -5.26303547       2.23416614       7.47480547
Si       2.90819524       4.53932861       5.23417085
Si       5.19469354       4.79076870       0.63506012
Si      -1.94103395      -1.46707802       6.16781900
Si       6.09101388      -1.08258739       4.91689621
Si      -2.83735428       4.40627807       1.88598291
Si      -4.02760594       1.47861553       5.38080823
Si       4.81295305       3.36334112       4.02135660
Si       2.90393006       4.53758662       1.52263849
Si      -2.11858294       0.30437003       7.87952634
16
Lattice="9.454535398627717 -0.33001894254174785 0.4464577265712473 -4.558625957254851 8.289516366529678 -0.446457611464945 -2.828836414441123 -3.745467420812771 8.225912408232787" Properties=species:S:1:pos:R:3 unique_starting_index=82 config_type=initial n_minim_iter=7 pbc="T T T"
Si      -0.01913444       3.73334240       2.04143333
Si       1.32456741       6.43466724       1.73956058
Si      -4.58648740       4.58508115       5.93116071
Si       3.06308395       1.83746107       6.07574561
Si       1.75203595       5.42386544       3.64738307
Si      -1.21839816       5.21887759       0.94635891
Si      -5.29649907       2.24183633       7.53711039
Si       3.00130044       4.65543929       5.28254400
Si       5.30543206       4.95053976       0.64922473
Si      -1.97058018      -1.51632410       6.24163825
Si       6.18310132      -1.04618409       4.98540974
Si      -2.84824944       4.48039976       1.90545324
Si      -4.07188670       1.47542278       5.42585701
Si       4.92816194       3.48337236       4.07510046
Si       2.98838587       4.67653416       1.53612969
Si      -2.13211063       0.28226099       7.96482778
16
Lattice="9.47057563792392 -0.19665566345364147 0.46416607525935766 -4.4468309092220615 8.36398059168245 -0.4641659571475566 -2.872573575294341 -3.861794244368877 8.171951589290543" Properties=species:S:1:pos:R:3 unique_starting_index=82 config_type=initial n_minim_iter=8 pbc="T T T"
Si       0.04343076       3.79080586       2.02400538
Si       1.42648137       6.56249154       1.71840028
Si      -4.51161063       4.58630643       5.87789817
Si       3.10894918       1.90519673       6.03645907
Si       1.84162562       5.51739092       3.61375811
Si      -1.12589991       5.29980866       0.92285248
Si      -5.24162008       2.20267744       7.46765085
Si       3.08477222       4.75272790       5.24091133
Si       5.37624031       5.10601906       0.65563798
Si      -1.98268425      -1.56468283       6.20800557
Si       6.19025496      -0.96315862       4.97369676
Si      -2.79669890       4.50449485       1.88994680
Si      -4.05356918       1.43654499       5.37703727
Si       5.00118070       3.60929864       4.06233717
Si       3.06123512       4.80256470       1.52314454
Si      -2.11362361       0.24327893       7.91622991
16
Lattice="9.468169625480362 0.2189188642797043 0.6228257169426198 -4.074837380313244 8.549260904192728 -0.6228255901415517 -2.9027449878101867 -4.257330304992242 7.970651391801619" Properties=species:S:1:pos:R:3 unique_starting_index=82 config_type=initial n_minim_iter=9 pbc="T T T"
Si       0.26038118       3.93313721       1.93981760
Si       1.75445538       6.91316480       1.61794744
Si      -4.18509279       4.52378080       5.61373048
Si       3.29718437       2.06519090       5.91468596
Si       2.14131848       5.74859987       3.47909331
Si      -0.81535309       5.52142873       0.80409568
Si      -4.95710969       2.02621801       7.15300613
Si       3.38033009       4.98648029       5.10083425
Si       5.57281373       5.55274855       0.69326833
Si      -1.93459385      -1.74781114       6.06885505
Si       6.23349528      -0.72920905       4.99000683
Si      -2.59527540       4.53414646       1.77211655
Si      -3.91314540       1.27137640       5.15108962
Si       5.24427788       3.95265698       4.04053949
Si       3.28586637       5.15728149       1.47717681
Si      -1.95473389       0.06675188       7.71445230
16
Lattice="9.271266869413395 0.16252833807108655 0.8969999716577183 -4.036362170778878 8.348088731659645 -0.8969998485813959 -2.5786254875287007 -4.279191161388549 7.862990994085783" Properties=species:S:1:pos:R:3 unique_starting_index=82 config_type=initial n_minim_iter=10 pbc="T T T"
Si       0.30106921       3.77900147       1.86280194
Si       1.72950490       6.70260840       1.51155648
Si      -3.92708939       4.31668463       5.34579749
Si       3.37903801       1.88573407       5.89155193
Si       2.15291216       5.48981426       3.38604651
Si      -0.76926973       5.38972510       0.66957097
Si      -4.61882604       1.89228711       6.86904200
Si       3.42384299       4.70806109       5.04956648
Si       5.42786070       5.35832138       0.74845401
Si      -1.69106950      -1.79152144       5.97669114
Si       6.24683108      -0.80883569       5.12844943
Si      -2.51003987       4.37563563       1.59669572
Si      -3.68425959       1.16709017       4.92509094
Si       5.24547852       3.73791042       4.09106638
Si       3.22166223       4.98276560       1.44209546
Si      -1.66044330      -0.07776501       7.57406186
16
Lattice="9.395505660131596 0.12822111445138518 0.7980948444950543 -4.123014814110094 8.443501424423898 -0.7980947205350578 -2.692588295220478 -4.251204724269143 7.975346344163312" Properties=species:S:1:pos:R:3 unique_starting_index=82 config_type=initial n_minim_iter=11 pbc="T T T"
Si       0.26617878       3.82488287       1.92079380
Si       1.70212887       6.77925208       1.55871560
Si      -4.06528999       4.41938442       5.50941959
Si       3.34100934       1.93354581       5.94543615
Si       2.10919910       5.54770174       3.45064494
Si      -0.80644959       5.46581990       0.72973834
Si      -4.77172137       1.99744642       7.03927067
Si       3.38188258       4.76487050       5.11645895
Si       5.46939113       5.38644685       0.73663292
Si      -1.77948369      -1.74869617       6.06980973
Si       6.28318327      -0.80064216       5.12335346
Si      -2.59327582       4.43839284       1.68308920
Si      -3.80468382       1.23565521       5.03781796
Si       5.26394580       3.77417180       4.11763235
Si       3.22525502       5.02817632       1.44919223
Si      -1.76599305      -0.01834931       7.70625808
16
Lattice="9.302968870588321 0.1381765493706664 0.7723206252860497 -4.072394498050783 8.365400516898672 -0.7723205023115394 -2.6857014148230327 -4.208476655518927 7.889013491213176" Properties=species:S:1:pos:R:3 unique_starting_index=82 config_type=initial n_minim_iter=12 pbc="T T T"
Si       0.26458706       3.79249463       1.90636017
Si       1.68876509       6.72691108       1.54475766
Si      -4.02930537       4.38365328       5.46470664
Si       3.29695610       1.92727578       5.87542467
Si       2.08423103       5.50025430       3.41442305
Si      -0.78933613       5.42417033       0.73009098
Si      -4.73283905       1.98937096       6.97276947
Si       3.34203253       4.72657700       5.06075805
Si       5.41968391       5.34411320       0.72644732
Si      -1.77521224      -1.72537905       6.00462084
Si       6.21380706      -0.77898837       5.05711432
Si      -2.56933540       4.39772252       1.67395384
Si      -3.77778829       1.22906103       4.98648454
Si       5.21286809       3.74867630       4.07120992
Si       3.19355874       4.99075925       1.42813813
Si      -1.75847894      -0.01302192       7.62955633
16
Lattice="9.299039396066153 0.12270199304232138 0.7667024419021811 -4.084433615170604 8.354914224571395 -0.7667023193031056 -2.6829135389263428 -4.192299898616478 7.893137437408011" Properties=species:S:1:pos:R:3 unique_starting_index=82 config_type=initial n_minim_iter=13 pbc="T T T"
Si       0.25720749       3.78299954       1.91158882
Si       1.67451110       6.71392986       1.54549456
Si      -4.03676897       4.38438686       5.47480636
Si       3.28557402       1.92024264       5.87541446
Si       2.06795976       5.48143124       3.41630666
Si      -0.79440212       5.42033481       0.73386090
Si      -4.73598751       2.00224756       6.97952414
Si       3.32663161       4.70721859       5.06378086
Si       5.40641451       5.32264614       0.72567700
Si      -1.77452351      -1.71406517       6.00888322
Si       6.21044283      -0.78307308       5.05559688
Si      -2.57855183       4.39165405       1.67896334
Si      -3.78319559       1.23731275       4.98681076
Si       5.20564046       3.73030476       4.07443289
Si       3.18039650       4.97603811       1.42359329
Si      -1.75795163      -0.00842059       7.63765036
16
Lattice="9.283766063524833 0.10973552083910577 0.7610247144984499 -4.0891180396357925 8.33543448481254 -0.7610245923685952 -2.6771688276521037 -4.173472344265064 7.886343162884141" Properties=species:S:1:pos:R:3 unique_starting_index=82 config_type=initial n_minim_iter=14 pbc="T T T"
Si       0.25077596       3.76978396       1.91408286
Si       1.66023790       6.69515870       1.54378712
Si      -4.03732322       4.37953827       5.47674213
Si       3.27116825       1.91193203       5.86747102
Si       2.05091462       5.45753386       3.41314428
Si      -0.79652320       5.41129911       0.73618975
Si      -4.73179486       2.01168941       6.97580349
Si       3.30901746       4.68367121       5.05987370
Si       5.38808215       5.29765098       0.72409195
Si      -1.77144036      -1.70205133       6.00476514
Si       6.19976137      -0.78495374       5.04777583
Si      -2.58311958       4.38055339       1.68108126
Si      -3.78328228       1.24332108       4.97945735
Si       5.19363895       3.70937078       4.07275444
Si       3.16448583       4.95750866       1.41679815
Si      -1.75412916      -0.00481680       7.63541364
16
Lattice="9.245863862957496 0.07721996441934748 0.7495450956498957 -4.101044588135473 8.286941230798039 -0.7495449746915501 -2.6605680837991024 -4.127854200998836 7.869941328398016" Properties=species:S:1:pos:R:3 unique_starting_index=82 config_type=initial n_minim_iter=15 pbc="T T T"
Si       0.23511544       3.73609680       1.92032815
Si       1.62485057       6.64858691       1.53882562
Si      -4.03689708       4.36676683       5.48052630
Si       3.23629502       1.89006268       5.84856880
Si       2.00891362       5.39662693       3.40487254
Si      -0.80099494       5.38913294       0.74092741
Si      -4.71895433       2.03470373       6.96507064
Si       3.26630492       4.62320195       5.05067064
Si       5.34224732       5.23524442       0.72031843
Si      -1.76162744      -1.67331689       5.99507897
Si       6.17430907      -0.79035687       5.03006159
Si      -2.59368919       4.35228440       1.68533581
Si      -3.78245748       1.25827160       4.95931187
Si       5.16523895       3.65555254       4.07054532
Si       3.12426272       4.91096284       1.39911378
Si      -1.74148125       0.00286129       7.63074342
16
Lattice="9.187180978553277 0.03392614518546977 0.7370189385323231 -4.113218678081086 8.215039719815405 -0.7370188192398749 -2.6332273584912005 -4.065281730214381 7.8414437678435505" Properties=species:S:1:pos:R:3 unique_starting_index=82 config_type=initial n_minim_iter=16 pbc="T T T"
Si       0.21396999       3.68431309       1.93016868
Si       1.57541579       6.58500507       1.52869367
Si      -4.02806106       4.34673228       5.48238114
Si       3.18421948       1.85730415       5.81792498
Si       1.94807738       5.30332400       3.38887644
Si      -0.80024127       5.36061317       0.74557739
Si      -4.69096248       2.06881950       6.94108884
Si       3.20557123       4.52983594       5.03480876
Si       5.27442127       5.14678549       0.71340433
Si      -1.74224970      -1.63444710       5.97868928
Si       6.13614220      -0.79548106       5.00263562
Si      -2.60397062       4.30781945       1.68945798
Si      -3.77882160       1.28139553       4.91942875
Si       5.12817793       3.57359867       4.07130432
Si       3.06225216       4.84435551       1.36721635
Si      -1.71289583       0.01063870       7.62351671
16
Lattice="9.10073835994174 0.02469212464926011 0.7118327170755077 -4.08247385037426 8.133723367936325 -0.7118325990925527 -2.6203583885517103 -4.010792348307121 7.770329521232793" Properties=species:S:1:pos:R:3 unique_starting_index=82 config_type=initial n_minim_iter=17 pbc="T T T"
Si       0.19946120       3.62919961       1.93991691
Si       1.54156504       6.54505439       1.51121781
Si      -3.99145679       4.32584964       5.46916535
Si       3.11212464       1.83761202       5.75229889
Si       1.88879672       5.20866399       3.35253999
Si      -0.76673870       5.34631911       0.75040653
Si      -4.63925466       2.10573246       6.88178838
Si       3.14095430       4.43845830       4.99148767
Si       5.20558154       5.08111702       0.69487199
Si      -1.72342023      -1.60042229       5.93366988
Si       6.07122067      -0.77234588       4.93595305
Si      -2.58905936       4.25304061       1.69258881
Si      -3.77017021       1.30744135       4.84139229
Si       5.09323592       3.50131918       4.06081079
Si       2.99325182       4.79302539       1.31214391
Si      -1.67018611       0.01573513       7.59005917
16
Lattice="9.122155268919856 0.03764130348484065 0.737217120016068 -4.080575666669412 8.158678570783518 -0.7372170014849592 -2.6115786779761017 -4.0423155540498 7.784469440513143" Properties=species:S:1:pos:R:3 unique_starting_index=82 config_type=initial n_minim_iter=18 pbc="T T T"
Si       0.19783984       3.61746651       1.96167210
Si       1.55257963       6.60325526       1.50412320
Si      -3.96471952       4.34825666       5.48529830
Si       3.10356031       1.83014955       5.76496644
Si       1.88423529       5.18769261       3.34919432
Si      -0.72932463       5.39932830       0.74370858
Si      -4.60559804       2.13493009       6.87282046
Si       3.14893003       4.40977526       5.00455188
Si       5.21606324       5.10518393       0.68490485
Si      -1.69684262      -1.62116171       5.95254900
Si       6.09288122      -0.76393803       4.94574807
Si      -2.57366059       4.24796025       1.69170577
Si      -3.77655158       1.32772745       4.79807994
Si       5.14254449       3.48075121       4.10685587
Si       2.97858663       4.81180787       1.27445380
Si      -1.61259372      -0.00332921       7.63048201
16
Lattice="9.012428239170472 0.06711120733296692 0.7057795983119498 -4.004785357800334 8.07403623254705 -0.7057794805787154 -2.61118296293999 -4.004535454047007 7.672803324279405" Properties=species:S:1:pos:R:3 unique_starting_index=82 config_type=initial n_minim_iter=19 pbc="T T T"
Si       0.20010546       3.58708595       1.94054790
Si       1.55111217       6.55709785       1.48866942
Si      -3.91545781       4.30891911       5.42405980
Si       3.05549248       1.83072924       5.67796084
Si       1.86773954       5.14936181       3.30273703
Si      -0.70173344       5.35478726       0.74274423
Si      -4.55770213       2.11592306       6.78624888
Si       3.11252527       4.38369056       4.93203570
Si       5.16927216       5.07796968       0.66913306
Si      -1.69440177      -1.60469101       5.86803746
Si       6.00746491      -0.73144964       4.85842446
Si      -2.53259452       4.20472831       1.67874605
Si      -3.74041293       1.31447419       4.73543761
Si       5.08533512       3.46894163       4.04470009
Si       2.95165290       4.78137566       1.25192576
Si      -1.60673070       0.00204016       7.52821193
16
Lattice="9.029336711162685 0.07127524511023674 0.7069279322452431 -4.008694740385934 8.091005391754955 -0.7069278142063896 -2.617837599855762 -4.015006655057295 7.68507622383353" Properties=species:S:1:pos:R:3 unique_starting_index=82 config_type=initial n_minim_iter=20 pbc="T T T"
Si       0.19983243       3.59291813       1.94611724
Si       1.55656431       6.57720896       1.49133500
Si      -3.91956875       4.32034801       5.43519142
Si       3.05812789       1.83477243       5.68733704
Si       1.87094339       5.15857690       3.30759072
Si      -0.69802966       5.37045224       0.74430522
Si      -4.56326428       2.12272306       6.79666485
Si       3.11834041       4.39129943       4.94030731
Si       5.18058516       5.09231245       0.66786992
Si      -1.69629799      -1.61026158       5.87833814
Si       6.01789197      -0.73003582       4.86387194
Si      -2.53360480       4.21208669       1.68233612
Si      -3.74774626       1.31821112       4.73930046
Si       5.09856113       3.47614458       4.05358589
Si       2.95679177       4.79355303       1.25022633
Si      -1.60597690       0.00080267       7.54266002
16
Lattice="9.022317963004776 0.0790566173934581 0.7038157533734075 -3.9985841970699894 8.08825048817802 -0.7038156352618647 -2.621091063526239 -4.016469560514904 7.674743115907472" Properties=species:S:1:pos:R:3 unique_starting_index=82 config_type=initial n_minim_iter=21 pbc="T T T"
Si       0.20006860       3.59131918       1.94625879
Si       1.56028082       6.58330485       1.49028689
Si      -3.91306070       4.32126269       5.43172251
Si       3.05231906       1.83689178       5.67956628
Si       1.87061411       5.15776339       3.30288368
Si      -0.69048529       5.37375597       0.74467018
Si      -4.55771228       2.12378818       6.78834735
Si       3.11675003       4.39126163       4.93394963
Si       5.18043475       5.09748900       0.66438642
Si      -1.69604083      -1.61203967       5.87120587
Si       6.01115966      -0.72405054       4.85366580
Si      -2.52676573       4.20949987       1.68192649
Si      -3.74589125       1.31816593       4.73053824
Si       5.09862075       3.47847619       4.04982853
Si       2.95578608       4.79653991       1.24507458
Si      -1.60305658       0.00010221       7.53529219
16
Lattice="8.98695671893518 0.12204416504249517 0.6909116562268581 -3.9442687418744837 8.076077643381842 -0.6909115376696885 -2.6366380766831257 -4.028143293786945 7.621013450995173" Properties=species:S:1:pos:R:3 unique_starting_index=82 config_type=initial n_minim_iter=22 pbc="T T T"
Si       0.20142171       3.58253574       1.94744513
Si       1.58230966       6.62017948       1.48443787
Si      -3.87574973       4.32750049       5.41249607
Si       3.02284301       1.84707144       5.64040038
Si       1.87023624       5.15346954       3.27767060
Si      -0.64798405       5.39461310       0.74548469
Si      -4.52518903       2.12954605       6.74272148
Si       3.11080315       4.39039330       4.90144726
Si       5.18180376       5.12817062       0.64546727
Si      -1.69205699      -1.62477710       5.83434647
Si       5.97789323      -0.69263847       4.80142976
Si      -2.48814646       4.19603199       1.67838397
Si      -3.73478202       1.31716631       4.68184094
Si       5.10281213       3.49130112       4.03227167
Si       2.95178151       4.81440619       1.21679006
Si      -1.58375140      -0.00593876       7.49732255
16
Lattice="8.933376882543623 0.20656202703384655 0.7066654527158098 -3.844669925042154 8.066374881763373 -0.7066653330767031 -2.638012161064636 -4.07885884220232 7.533330527867628" Properties=species:S:1:pos:R:3 unique_starting_index=82 config_type=initial n_minim_iter=23 pbc="T T T"
Si       0.20586815       3.56169591       1.94765623
Si       1.63758609       6.70740511       1.46979573
Si      -3.78302253       4.34012930       5.36098881
Si       2.98846460       1.85011288       5.58979368
Si       1.88199239       5.14100246       3.22885444
Si      -0.55676678       5.44686246       0.73432431
Si      -4.43663793       2.13187463       6.64218697
Si       3.12385138       4.37713145       4.85432231
Si       5.19730759       5.19937702       0.61190313
Si      -1.65724736      -1.67537069       5.77425833
Si       5.93987451      -0.64687439       4.73190106
Si      -2.39981428       4.17088072       1.65426040
Si      -3.69655170       1.30060399       4.57797506
Si       5.13788303       3.51433640       4.01827774
Si       2.95770304       4.85537134       1.16464254
Si      -1.51637170      -0.04043095       7.43161026
16
Lattice="8.755587697998475 0.30217098472778714 0.5816597368218925 -3.6791525950815256 7.950815025033678 -0.5816596174713072 -2.7191326234943696 -4.015211736784213 7.319449690750828" Properties=species:S:1:pos:R:3 unique_starting_index=82 config_type=initial n_minim_iter=24 pbc="T T T"
Si       0.19132985       3.53098789       1.92966619
Si       1.65858368       6.70664065       1.46806070
Si      -3.72610941       4.33102277       5.29856121
Si       2.85689032       1.89139403       5.41861537
Si       1.83838535       5.11468749       3.14627503
Si      -0.47755573       5.42377794       0.76648747
Si      -4.39675595       2.14673121       6.51517000
Si       3.03845295       4.37652248       4.71704220
Si       5.14877329       5.21616693       0.55320502
Si      -1.69973258      -1.64992391       5.61657691
Si       5.76127311      -0.55145184       4.50375967
Si      -2.31223240       4.11769485       1.66602225
Si      -3.67124817       1.28594140       4.48583185
Si       5.04041129       3.55964019       3.87418983
Si       2.93386744       4.85538133       1.11693689
Si      -1.56470432      -0.00979974       7.24308478
16
Lattice="8.900995730414074 0.28018645614733373 0.6401065331193987 -3.764354501951141 8.070679325887282 -0.6401064123533242 -2.7122349412609883 -4.086910888158785 7.460355677342228" Properties=species:S:1:pos:R:3 unique_starting_index=82 config_type=initial n_minim_iter=25 pbc="T T T"
Si       0.19261611       3.56928808       1.95850015
Si       1.67517940       6.79225393       1.48379670
Si      -3.76876202       4.38562350       5.36862476
Si       2.92432258       1.88900763       5.53402776
Si       1.86805249       5.16551984       3.19933285
Si      -0.49323019       5.49925139       0.76209528
Si      -4.43779373       2.17034934       6.60945741
Si       3.10038109       4.40751100       4.81232639
Si       5.22052814       5.27233876       0.57056770
Si      -1.68917074      -1.68927260       5.72410012
Si       5.87985970      -0.58979049       4.62079874
Si      -2.34850230       4.17285665       1.67386907
Si      -3.71025017       1.29687036       4.54713075
Si       5.13614976       3.58126883       3.96471436
Si       2.97577806       4.91011963       1.13700620
Si      -1.54987847      -0.03198044       7.37483891
16
Lattice="8.878751112581694 0.2810155405914171 0.642415923616025 -3.75358201194427 8.051199493718341 -0.6424158031196687 -2.7027552583960626 -4.079888224657011 7.441338277464453" Properties=species:S:1:pos:R:3 unique_starting_index=82 config_type=initial n_minim_iter=26 pbc="T T T"
Si       0.19143872       3.55923358       1.95369657
Si       1.67297831       6.77867926       1.48007716
Si      -3.75592916       4.37565505       5.35315779
Si       2.91759094       1.88236957       5.52195422
Si       1.86348732       5.15067035       3.18985673
Si      -0.48843950       5.48825488       0.75925304
Si      -4.42220918       2.16556714       6.58931790
Si       3.09450174       4.39346986       4.80113016
Si       5.20890461       5.26151386       0.56791706
Si      -1.68128760      -1.68900063       5.70957405
Si       5.86642422      -0.58925902       4.60979410
Si      -2.33880722       4.16177226       1.66769700
Si      -3.69916751       1.29160350       4.53255974
Si       5.12667695       3.57269183       3.95647453
Si       2.96961506       4.89950675       1.13309858
Si      -1.54210562      -0.03521143       7.35593568
16
Lattice="8.871840567075823 0.2812839407311199 0.6457772264136675 -3.750225743467383 8.045152747554248 -0.6457771060008758 -2.6975758951069535 -4.0790917696721865 7.435711032161667" Properties=species:S:1:pos:R:3 unique_starting_index=82 config_type=initial n_minim_iter=27 pbc="T T T"
Si       0.18969797       3.55457259       1.95272378
Si       1.67289409       6.77649820       1.47922888
Si      -3.75006356       4.37379653       5.34769072
Si       2.91507973       1.87818249       5.51997297
Si       1.86104201       5.14345782       3.18610085
Si      -0.48476712       5.48674803       0.75797386
Si      -4.41438404       2.16548822       6.58106774
Si       3.09308304       4.38562587       4.79871800
Si       5.20570225       5.25875886       0.56580360
Si      -1.67588294      -1.69158257       5.70545241
Si       5.86301896      -0.59040424       4.60654767
Si      -2.33319964       4.15758053       1.66470834
Si      -3.69474212       1.28870158       4.52597340
Si       5.12591170       3.56936008       3.95529058
Si       2.96815601       4.89660177       1.13100652
Si      -1.53698643      -0.03854011       7.35025746
16
Lattice="8.857372065487228 0.28450822443663426 0.6485041666795058 -3.7408225872475063 8.033693506912394 -0.648504046385803 -2.691441338722664 -4.07718981988684 7.422075800156736" Properties=species:S:1:pos:R:3 unique_starting_index=82 config_type=initial n_minim_iter=28 pbc="T T T"
Si       0.18310889       3.54483626       1.95257789
Si       1.67405872       6.77822047       1.47975294
Si      -3.73910924       4.37517246       5.33936375
Si       2.90483551       1.87069444       5.51504288
Si       1.85294739       5.12830055       3.17733921
Si      -0.47333093       5.48849923       0.75788251
Si      -4.39927043       2.17065276       6.56412501
Si       3.08744556       4.36895720       4.79317250
Si       5.20085779       5.25705701       0.55766450
Si      -1.66613109      -1.69857459       5.69591445
Si       5.85312068      -0.59098475       4.59295442
Si      -2.31839398       4.14946717       1.66062452
Si      -3.68811454       1.28274086       4.51182380
Si       5.12507417       3.56608400       3.95083362
Si       2.96616365       4.89403603       1.12503801
Si      -1.52920402      -0.04521117       7.33761942
16
Lattice="8.830044974710434 0.30296983121324234 0.6150945367123024 -3.7120204871878495 8.017629888237465 -0.6150944163839197 -2.7174287534175354 -4.062857522120341 7.385702132375606" Properties=species:S:1:pos:R:3 unique_starting_index=82 config_type=initial n_minim_iter=29 pbc="T T T"
Si       0.16282263       3.53541073       1.95917573
Si       1.67858314       6.80064642       1.49130656
Si      -3.73770120       4.39786267       5.34447957
Si       2.86167822       1.87533695       5.49170485
Si       1.82734667       5.11369412       3.16135160
Si      -0.44607856       5.50539500       0.77368411
Si      -4.39563521       2.20042286       6.54665539
Si       3.05947457       4.35580874       4.77408245
Si       5.19843800       5.26984749       0.53062226
Si      -1.67359743      -1.70363146       5.67118064
Si       5.81543134      -0.57579873       4.53102054
Si      -2.29059076       4.14201476       1.67078236
Si      -3.69581684       1.27985867       4.49644180
Si       5.11370634       3.58234891       3.92411089
Si       2.96459241       4.90427502       1.11113803
Si      -1.54670291      -0.04206744       7.30941467
16
Lattice="8.822537010330139 0.2852294035241824 0.6348536505732553 -3.7244680084739548 8.002927796582947 -0.6348535307140384 -2.6909874146996002 -4.056763067046319 7.390724891423259" Properties=species:S:1:pos:R:3 unique_starting_index=82 config_type=initial n_minim_iter=30 pbc="T T T"
Si       0.11370652       3.49952256       1.97621634
Si       1.67157106       6.82634200       1.51235804
Si      -3.73080294       4.43736056       5.35415201
Si       2.82509310       1.83174094       5.52514727
Si       1.77576329       5.04185436       3.14705251
Si      -0.40828871       5.54100200       0.78149428
Si      -4.35776221       2.25833732       6.52498812
Si       3.03424937       4.26775598       4.79428356
Si       5.19659461       5.26247328       0.49148048
Si      -1.62995972      -1.74432365       5.67816317
Si       5.81069278      -0.60909314       4.50426970
Si      -2.24405788       4.12724277       1.66537396
Si      -3.70103039       1.26309006       4.47335218
Si       5.13506471       3.56682820       3.94205179
Si       2.96023272       4.90457357       1.09541658
Si      -1.52619839      -0.07465531       7.31998739
16
Lattice="8.635753513123241 0.3002843132270479 0.5095000560031342 -3.626790228780875 7.843009764408813 -0.509499938238855 -2.737172439424084 -3.928518373720392 7.211146243105621" Properties=species:S:1:pos:R:3 unique_starting_index=82 config_type=initial n_minim_iter=31 pbc="T T T"
Si       0.08660064       3.44904657       1.95428483
Si       1.63131157       6.71858231       1.51139562
Si      -3.71678359       4.39604996       5.30510797
Si       2.69752337       1.84306055       5.37171872
Si       1.70413490       4.96807154       3.08586119
Si      -0.39505481       5.45103114       0.81034478
Si      -4.34302111       2.26727552       6.43668427
Si       2.91492875       4.22330879       4.67066793
Si       5.09852541       5.17940038       0.45149243
Si      -1.67108988      -1.67546498       5.54268859
Si       5.63501693      -0.55731118       4.31181553
Si      -2.20758139       4.06124658       1.68236550
Si      -3.68436652       1.26692002       4.41845944
Si       4.98960292       3.54238606       3.81052853
Si       2.89403072       4.83137851       1.06763637
Si      -1.58879432      -0.02207243       7.16135160
16
Lattice="8.786915853992008 0.2854116210866883 0.5483277380403189 -3.708239925881855 7.971217397714564 -0.5483276186370457 -2.751749011427969 -3.997659977998517 7.351095524158687" Properties=species:S:1:pos:R:3 unique_starting_index=82 config_type=initial n_minim_iter=32 pbc="T T T"
Si       0.08627536       3.49537973       1.98681909
Si       1.65062320       6.81678599       1.53227929
Si      -3.77144036       4.46164412       5.38820303
Si       2.75658991       1.85286162       5.48199088
Si       1.73147397       5.03146557       3.14102569
Si      -0.40876347       5.53546839       0.81423833
Si      -4.40042817       2.30048409       6.54240957
Si       2.97138966       4.26878989       4.76394997
Si       5.17751715       5.24734188       0.46518792
Si      -1.67662960      -1.71047933       5.64965456
Si       5.74800930      -0.58712726       4.41489949
Si      -2.24712175       4.12398982       1.69994299
Si      -3.73677698       1.28302196       4.48938983
Si       5.08300855       3.57917557       3.89443867
Si       2.93889130       4.89802821       1.08800596
Si      -1.59265974      -0.03583068       7.29582254
