18
Lattice="5.431791170758802 -2.8691655297117917e-15 1.9090504663631997e-17 -2.7158955853793976 4.70406914192914 3.818100932726401e-17 -4.294600097844638e-17 -1.2397442612761958e-16 12.219357897778218" Properties=species:S:1:pos:R:3 unique_starting_index=28 config_type=initial n_minim_iter=1 energy=-2928.2385050246126 free_energy=-2928.2385050246126 pbc="T T T"
Si      -1.45356763       3.35395830       2.61917583
Si       0.91550132       4.28591649       2.61917583
Si       0.53806631       1.76826350       2.61917583
Si      -0.91550132       4.28591649       8.72885478
Si      -0.53806631       1.76826350       8.72885478
Si       1.45356763       3.35395830       8.72885478
Si      -1.53363116       3.86560137       4.93895220
Si       1.39862897       4.09943200       4.93895220
Si       0.13500218       1.44310492       4.93895220
Si      -1.39862898       4.09943200      11.04863115
Si      -0.13500218       1.44310492      11.04863115
Si       1.53363115       3.86560137      11.04863115
Si       4.21538795       1.32882008       1.05706793
Si       1.75899355       0.38902605       1.05706793
Si       2.17330525       2.98622302       1.05706793
Si       3.67279762       0.38902605       7.16674688
Si       3.25848592       2.98622302       7.16674688
Si       1.21640322       1.32882008       7.16674688
18
Lattice="5.418046016890365 -2.843597165439623e-15 3.6198717749874525e-17 -2.709023008445179 4.69216548950015 7.239743549974907e-17 -4.0636238845196115e-18 -1.1730671718063846e-17 12.404613242436751" Properties=species:S:1:pos:R:3 unique_starting_index=28 config_type=initial n_minim_iter=2 stress="0.00411565711930882 4.523911694650819e-17 -4.8407615409687754e-18 4.523911694650819e-17 0.00411565711930891 -1.9010990779077372e-17 -4.8407615409687754e-18 -1.9010990779077372e-17 0.005427360598007395" pbc="T T T"
Si      -1.44947622       3.34513095       2.65879799
Si       0.91268348       4.27488325       2.65879799
Si       0.53679274       1.76431679       2.65879799
Si      -0.91268349       4.27488325       8.86110461
Si      -0.53679274       1.76431679       8.86110461
Si       1.44947622       3.34513095       8.86110461
Si      -1.52683998       3.85524927       5.01490563
Si       1.39314078       4.08682306       5.01490563
Si       0.13369919       1.44225865       5.01490563
Si      -1.39314079       4.08682306      11.21721226
Si      -0.13369919       1.44225865      11.21721226
Si       1.52683997       3.85524927      11.21721226
Si       4.20205239       1.32652797       1.07210568
Si       1.75680373       0.38981739       1.07210568
Si       2.16821290       2.97582014       1.07210568
Si       3.66124229       0.38981739       7.27441230
Si       3.24983311       2.97582014       7.27441230
Si       1.21599362       1.32652797       7.27441230
18
Lattice="5.355824224671657 -2.7742649824319897e-15 3.730875898901107e-17 -2.6779121123358256 4.638279836769753 7.461751797802216e-17 -1.7890530707095386e-18 -5.164551359843302e-18 12.452865305090993" Properties=species:S:1:pos:R:3 unique_starting_index=28 config_type=initial n_minim_iter=3 stress="-0.004914545105805328 4.844973940441051e-18 -1.4534921821323153e-17 4.844973940441051e-18 -0.004914545105805052 6.6394087331969964e-18 -1.4534921821323153e-17 6.6394087331969964e-18 0.0020835174703942774" pbc="T T T"
Si      -1.43213424       3.30641308       2.66976667
Si       0.90159273       4.22533793       2.66976667
Si       0.53054151       1.74480867       2.66976667
Si      -0.90159273       4.22533793       8.89619932
Si      -0.53054151       1.74480867       8.89619932
Si       1.43213424       3.30641308       8.89619932
Si      -1.50283680       3.80926627       5.03628114
Si       1.37242765       4.03514155       5.03628114
Si       0.13040915       1.43215186       5.03628114
Si      -1.37242765       4.03514155      11.26271379
Si      -0.13040915       1.43215186      11.26271379
Si       1.50283680       3.80926627      11.26271379
Si       4.14846063       1.31350368       1.07378136
Si       1.74120935       0.38885570       1.07378136
Si       2.14406635       2.93592045       1.07378136
Si       3.61461487       0.38885570       7.30021401
Si       3.21175787       2.93592045       7.30021401
Si       1.20736359       1.31350368       7.30021401
18
Lattice="5.317146232044051 -2.7472226627430855e-15 3.7735391019661646e-17 -2.6585731160220227 4.6047837125868565 7.547078203932327e-17 -9.085640681559554e-19 -2.6227985466292187e-18 12.467088971358399" Properties=species:S:1:pos:R:3 unique_starting_index=28 config_type=initial n_minim_iter=4 stress="-0.006860354689115602 1.5548677273022437e-17 1.05476407232199e-17 1.5548677273022437e-17 -0.006860354689115509 1.6367028708444672e-18 1.05476407232199e-17 1.6367028708444672e-18 0.000621787643747659" pbc="T T T"
Si      -1.42075054       3.28234811       2.68482797
Si       0.89439900       4.19401572       2.68482797
Si       0.52635154       1.73320360       2.68482797
Si      -0.89439900       4.19401572       8.91837246
Si      -0.52635154       1.73320360       8.91837246
Si       1.42075054       3.28234811       8.91837246
Si      -1.43191568       3.76093609       5.05478622
Si       1.31445092       3.96439103       5.05478622
Si       0.11746476       1.48424031       5.05478622
Si      -1.31445092       3.96439103      11.28833071
Si      -0.11746476       1.48424031      11.28833071
Si       1.43191568       3.76093609      11.28833071
Si       4.07736724       1.32287544       1.05024330
Si       1.76553322       0.41224238       1.05024330
Si       2.13281888       2.86966590       1.05024330
Si       3.55161300       0.41224238       7.28378779
Si       3.18432735       2.86966590       7.28378779
Si       1.23977899       1.32287544       7.28378779
18
Lattice="5.3541826700445165 -2.837354066331576e-15 3.754189943122428e-17 -2.677091335022255 4.636858208760945 7.508379886244851e-17 -8.592155796185143e-19 -2.4803417309232555e-18 12.39416937121889" Properties=species:S:1:pos:R:3 unique_starting_index=28 config_type=initial n_minim_iter=5 stress="-0.00028682166796804094 -7.171053138541717e-17 -2.5797750913495988e-17 -7.171053138541717e-17 -0.0002868216679682257 -6.656902158797216e-17 -2.5797750913495988e-17 -6.656902158797216e-17 0.0005880841741833514" pbc="T T T"
Si      -1.43230931       3.30881812       2.67164081
Si       0.90458386       4.22286540       2.67164081
Si       0.52772544       1.74203290       2.67164081
Si      -0.90458387       4.22286540       8.86872550
Si      -0.52772545       1.74203290       8.86872550
Si       1.43230931       3.30881812       8.86872550
Si      -1.42131840       3.77990033       5.03012526
Si       1.30705757       3.97780589       5.03012526
Si       0.11426082       1.51601020       5.03012526
Si      -1.30705758       3.97780589      11.22720995
Si      -0.11426083       1.51601020      11.22720995
Si       1.42131840       3.77990033      11.22720995
Si       4.09758680       1.33813677       1.03667983
Si       1.78715837       0.41917556       1.03667983
Si       2.14652883       2.87954588       1.03667983
Si       3.56702429       0.41917556       7.23376452
Si       3.20765384       2.87954588       7.23376452
Si       1.25659587       1.33813677       7.23376452
18
Lattice="5.371223374028579 -2.817878959632159e-15 3.7283486941716764e-17 -2.6856116870142865 4.651615891309512 7.456697388343348e-17 -8.801273099905685e-19 -2.540708696720888e-18 12.311204301879544" Properties=species:S:1:pos:R:3 unique_starting_index=28 config_type=initial n_minim_iter=6 stress="0.0012157075160273841 -2.0979522434568916e-18 -1.245236170309897e-17 -2.0979522434568916e-18 0.001215707516027107 5.793055227093868e-17 -1.245236170309897e-17 5.793055227093868e-17 -0.0015657194013684633" pbc="T T T"
Si      -1.44299814       3.33681601       2.65441347
Si       0.92565482       4.23288093       2.65441347
Si       0.51734332       1.73353484       2.65441347
Si      -0.92565482       4.23288093       8.81001562
Si      -0.51734332       1.73353484       8.81001562
Si       1.44299814       3.33681601       8.81001562
Si      -1.37003924       3.77370489       5.01224049
Si       1.26753223       3.95125223       5.01224049
Si       0.10250700       1.57827466       5.01224049
Si      -1.26753224       3.95125223      11.16784264
Si      -0.10250700       1.57827466      11.16784264
Si       1.37003923       3.77370489      11.16784264
Si       4.10114311       1.35784415       1.01329784
Si       1.81096765       0.42099970       1.01329784
Si       2.14472429       2.87277205       1.01329784
Si       3.56025572       0.42099970       7.16889999
Si       3.22649908       2.87277205       7.16889999
Si       1.27008026       1.35784415       7.16889999
18
Lattice="5.3812960725048 -2.843168457987667e-15 3.7349319824541833e-17 -2.6906480362523966 4.660339104074579 7.469863964908363e-17 -8.012808100975918e-19 -2.3130984570315384e-18 12.321107773041348" Properties=species:S:1:pos:R:3 unique_starting_index=28 config_type=initial n_minim_iter=7 stress="0.004278825171882996 1.3136871475827e-16 -1.3702767477862626e-16 1.3136871475827e-16 0.00427882517188272 -3.646885346451804e-17 -1.3702767477862626e-16 -3.646885346451804e-17 -0.0001738885800603038" pbc="T T T"
Si      -1.44901729       3.35689542       2.64747434
Si       0.94101731       4.23677718       2.64747434
Si       0.50799997       1.72700562       2.64747434
Si      -0.94101732       4.23677718       8.80802822
Si      -0.50799997       1.72700562       8.80802822
Si       1.44901728       3.35689542       8.80802822
Si      -1.37071542       3.78200225       5.02082334
Si       1.27001970       3.95641235       5.02082334
Si       0.10069572       1.58226361       5.02082334
Si      -1.27001970       3.95641235      11.18137722
Si      -0.10069572       1.58226361      11.18137722
Si       1.37071541       3.78200225      11.18137722
Si       4.12967747       1.35910323       1.01863652
Si       1.80282722       0.40438189       1.01863652
Si       2.13943941       2.89685399       1.01863652
Si       3.57846885       0.40438189       7.17919041
Si       3.24185666       2.89685399       7.17919041
Si       1.25161859       1.35910323       7.17919041
18
Lattice="5.354960054903515 -2.7498661840694054e-15 3.755533340467577e-17 -2.677480027451754 4.637531443797351 7.511066680935149e-17 -6.576150718374633e-19 -1.8983711937424797e-18 12.3687580406124" Properties=species:S:1:pos:R:3 unique_starting_index=28 config_type=initial n_minim_iter=8 stress="0.0006099124585232267 4.2921476310736634e-17 -6.971351362891224e-17 4.2921476310736634e-17 0.0006099124585226715 -7.174663619099976e-17 -6.971351362891224e-17 -7.174663619099976e-17 0.0003682414798485424" pbc="T T T"
Si      -1.44247193       3.34488496       2.65617639
Si       0.94051128       4.21430630       2.65617639
Si       0.50196064       1.71587163       2.65617639
Si      -0.94051129       4.21430630       8.84055541
Si      -0.50196064       1.71587163       8.84055541
Si       1.44247193       3.34488496       8.84055541
Si      -1.35773765       3.76267062       5.04231241
Si       1.25995714       3.93203143       5.04231241
Si       0.09778050       1.58036084       5.04231241
Si      -1.25995714       3.93203143      11.22669143
Si      -0.09778051       1.58036084      11.22669143
Si       1.35773765       3.76267062      11.22669143
Si       4.11111923       1.35390554       1.02204098
Si       1.79443700       0.40024499       1.02204098
Si       2.12688385       2.88338093       1.02204098
Si       3.56052305       0.40024499       7.20642000
Si       3.22807620       2.88338093       7.20642000
Si       1.24384082       1.35390554       7.20642000
18
Lattice="5.344687233524681 -2.7994888590268993e-15 3.766510080293519e-17 -2.672343616762337 4.6286349195147425 7.533020160587034e-17 -5.09591081017846e-19 -1.4710627390113387e-18 12.38348864871705" Properties=species:S:1:pos:R:3 unique_starting_index=28 config_type=initial n_minim_iter=9 stress="-0.000844385946922589 -1.0317165444395224e-17 -8.761096803275681e-17 -1.0317165444395224e-17 -0.0008443859469226818 -1.0509692132161106e-16 -8.761096803275681e-17 -1.0509692132161106e-16 -0.00030659123721885523" pbc="T T T"
Si      -1.43880926       3.33849843       2.65960875
Si       0.93828546       4.20543108       2.65960875
Si       0.50052379       1.71334033       2.65960875
Si      -0.93828547       4.20543108       8.85135307
Si      -0.50052380       1.71334033       8.85135307
Si       1.43880926       3.33849843       8.85135307
Si      -1.36145394       3.75963729       5.04595018
Si       1.26432475       3.92786997       5.04595018
Si       0.09712918       1.56976258       5.04595018
Si      -1.26432476       3.92786997      11.23769451
Si      -0.09712919       1.56976258      11.23769451
Si       1.36145394       3.75963729      11.23769451
Si       4.10438657       1.35009311       1.02535658
Si       1.78936526       0.39908533       1.02535658
Si       2.12327901       2.87945648       1.02535658
Si       3.55532197       0.39908533       7.21710091
Si       3.22140822       2.87945648       7.21710091
Si       1.24030066       1.35009311       7.21710091
18
Lattice="5.352711127652316 -2.8227930436550676e-15 3.775429238949749e-17 -2.6763555638261547 4.635583815666553 7.550858477899495e-17 -3.525122537828381e-19 -1.017615223070729e-18 12.389735070302585" Properties=species:S:1:pos:R:3 unique_starting_index=28 config_type=initial n_minim_iter=10 stress="0.000433873239819366 5.411387060865544e-17 -6.1347862487727e-17 5.411387060865544e-17 0.00043387323981890376 -7.692182316341929e-17 -6.1347862487727e-17 -7.692182316341929e-17 0.0005135606719581603" pbc="T T T"
Si      -1.44102417       3.36383086       2.66698903
Si       0.95731949       4.20163192       2.66698903
Si       0.48370467       1.70570485       2.66698903
Si      -0.95731950       4.20163192       8.86185656
Si      -0.48370467       1.70570485       8.86185656
Si       1.44102417       3.36383086       8.86185656
Si      -1.35681307       3.78357121       5.04529966
Si       1.27871975       3.91883280       5.04529966
Si       0.07809331       1.56876363       5.04529966
Si      -1.27871975       3.91883280      11.24016720
Si      -0.07809332       1.56876363      11.24016720
Si       1.35681306       3.78357121      11.24016720
Si       4.10737436       1.36053566       1.02303083
Si       1.80092682       0.39822544       1.02303083
Si       2.12076550       2.87682271       1.02303083
Si       3.55178430       0.39822544       7.21789837
Si       3.23194563       2.87682271       7.21789837
Si       1.24533676       1.36053566       7.21789837
18
Lattice="5.349843204193241 -2.9058278060128084e-15 3.771576065644991e-17 -2.6749216020966182 4.6331001210948894 7.543152131289977e-17 -2.939821791256147e-19 -8.486534512755455e-19 12.368566483113435" Properties=species:S:1:pos:R:3 unique_starting_index=28 config_type=initial n_minim_iter=11 stress="-0.0012911282052108898 -1.7677024918718688e-17 -9.40209494396382e-17 -1.7677024918718688e-17 -0.0012911282052108898 -9.379461109240748e-17 -9.40209494396382e-17 -9.379461109240748e-17 -0.0013805672651815888" pbc="T T T"
Si      -1.44042483       3.36547908       2.66190319
Si       0.95988119       4.19780507       2.66190319
Si       0.48054363       1.70291609       2.66190319
Si      -0.95988120       4.19780507       8.84618643
Si      -0.48054364       1.70291609       8.84618643
Si       1.44042482       3.36547908       8.84618643
Si      -1.35529945       3.78700826       5.03874831
Si       1.28237348       3.91331975       5.03874831
Si       0.07292597       1.56587224       5.03874831
Si      -1.28237348       3.91331975      11.22303156
Si      -0.07292597       1.56587224      11.22303156
Si       1.35529945       3.78700826      11.22303156
Si       4.10241474       1.36308872       1.01974322
Si       1.80418369       0.39876038       1.01974322
Si       2.11816637       2.87125102       1.01974322
Si       3.54565951       0.39876038       7.20402646
Si       3.23167683       2.87125102       7.20402646
Si       1.24742846       1.36308872       7.20402646
18
Lattice="5.363801462584652 -2.9938704926073393e-15 3.7663979969097646e-17 -2.681900731292324 4.64518832745444 7.532795993819524e-17 -2.627236015204986e-19 -7.584177103015523e-19 12.346877369757081" Properties=species:S:1:pos:R:3 unique_starting_index=28 config_type=initial n_minim_iter=12 stress="4.525868561539584e-05 -4.188601035430206e-17 -1.2017698608924145e-16 -4.188601035430206e-17 4.525868561548823e-05 -1.2432724236559663e-16 -1.2017698608924145e-16 -1.2432724236559663e-16 -2.9464607518521727e-05" pbc="T T T"
Si      -1.44506615       3.37778061       2.65344353
Si       0.96587615       4.20776202       2.65344353
Si       0.47918999       1.70483403       2.65344353
Si      -0.96587616       4.20776202       8.82688221
Si      -0.47918999       1.70483403       8.82688221
Si       1.44506614       3.37778061       8.82688221
Si      -1.35752965       3.80383203       5.03662855
Si       1.29107926       3.91892748       5.03662855
Si       0.06645039       1.56761715       5.03662855
Si      -1.29107926       3.91892748      11.21006723
Si      -0.06645039       1.56761715      11.21006723
Si       1.35752965       3.80383203      11.21006723
Si       4.10950062       1.37204202       1.01503085
Si       1.81537366       0.40023538       1.01503085
Si       2.12082790       2.87291093       1.01503085
Si       3.54842780       0.40023538       7.18846953
Si       3.24297356       2.87291093       7.18846953
Si       1.25430084       1.37204202       7.18846953
18
Lattice="5.3634472381050875 -3.0392603343769813e-15 3.7677737481365765e-17 -2.681723619052542 4.644881560056493 7.535547496273148e-17 -2.4116970574848733e-19 -6.96196972671273e-19 12.348250486490526" Properties=species:S:1:pos:R:3 unique_starting_index=28 config_type=initial n_minim_iter=13 stress="-3.4680856549255014e-07 -1.3689364800520082e-16 6.6766386240796576e-18 -1.3689364800520082e-16 -3.4680856549255014e-07 -3.148847134870001e-17 6.6766386240796576e-18 -3.148847134870001e-17 8.678589933296668e-06" pbc="T T T"
Si      -1.44483240       3.37784419       2.65368688
Si       0.96599145       4.20722103       2.65368688
Si       0.47884094       1.70469791       2.65368688
Si      -0.96599146       4.20722103       8.82781212
Si      -0.47884094       1.70469791       8.82781212
Si       1.44483240       3.37784419       8.82781212
Si      -1.35764158       3.80420085       5.03715689
Si       1.29163174       3.91853324       5.03715689
Si       0.06600984       1.56702904       5.03715689
Si      -1.29163175       3.91853324      11.21128213
Si      -0.06600984       1.56702904      11.21128213
Si       1.35764158       3.80420085      11.21128213
Si       4.10947812       1.37205523       1.01522726
Si       1.81521924       0.39994150       1.01522726
Si       2.12047349       2.87288483       1.01522726
Si       3.54822799       0.39994150       7.18935251
Si       3.24297374       2.87288483       7.18935251
Si       1.25396912       1.37205523       7.18935251
