20
Lattice="9.786859733419844 7.700506898800086e-13 1.6875856469806716e-14 4.8934298667092575 8.475669152416971 -2.8350672856427087e-14 4.893429866709692 2.825223050805936 5.076991992797341" Properties=species:S:1:pos:R:3 unique_starting_index=8 config_type=initial n_minim_iter=1 energy=-3257.0589013207145 free_energy=-3257.0589013207145 pbc="T T T"
Si      12.04885078       4.80351971       1.99657912
Si       9.38932399       8.03285100       1.99657912
Si       7.92240445       4.11496759       1.99657912
Si       7.67052455       5.03485504       4.24068114
Si      11.37814482       4.12544160       4.24068114
Si      10.31190984       7.79104166       4.24068114
Si       9.26431769       3.46048472       4.95949853
Si      11.94469295       6.29289210       4.95949853
Si       8.15156857       7.19796148       4.95949853
Si       6.54970066       6.96756805      -0.43695222
Si      10.26477821       2.18842313      -0.43695222
Si      12.54610034       7.79534713      -0.43695222
Si      13.65034920       6.36992425       3.32577941
Si      17.01888838       8.63658705       3.32577941
Si      13.37163123      10.42049616       3.32577941
Si      10.10126360       3.49530795       1.50397500
Si      11.49606219       7.00029691       1.50397500
Si       7.76325342       6.45573344       1.50397500
Si      14.68028960       8.47566915       0.22220946
Si      14.68028960       8.47566915       2.64014043
20
Lattice="9.795771600765926 7.720017335303027e-13 1.6902519602941722e-14 4.8978858003823 8.483387055933843 -2.8375470922325498e-14 4.897885800382733 2.8277956853115573 5.085321686508959" Properties=species:S:1:pos:R:3 unique_starting_index=8 config_type=initial n_minim_iter=2 stress="0.0009165092603893051 1.9211804654448334e-16 -3.1471524835859787e-16 1.9211804654448334e-16 0.0009165092603903138 -5.255719162640683e-17 -3.1471524835859787e-16 -5.255719162640683e-17 0.0006819163741074637" pbc="T T T"
Si      12.05998006       4.80836322       1.99981694
Si       9.39738847       8.04006749       1.99981694
Si       7.92994628       4.11834340       1.99981694
Si       7.67750770       5.03920976       4.24773251
Si      11.38870569       4.12931183       4.24773251
Si      10.32110142       7.79825253       4.24773251
Si       9.27227006       3.46378969       4.96734386
Si      11.95567831       6.29812657       4.96734386
Si       8.15936644       7.20485785       4.96734386
Si       6.55579517       6.97371469      -0.43785805
Si      10.27423155       2.19062781      -0.43785805
Si      12.55728810       7.80243162      -0.43785805
Si      13.66319147       6.37575208       3.33140676
Si      17.03415580       8.64479487       3.33140676
Si      13.38362494      10.42961422       3.33140676
Si      10.11099591       3.49848748       1.50652807
Si      11.50626622       7.00713557       1.50652807
Si       7.77005268       6.46115107       1.50652807
Si      14.69365740       8.48338706       0.22319586
Si      14.69365740       8.48338706       2.64435508
20
Lattice="9.778394917074507 7.648226545512896e-13 1.6870176647692774e-14 4.889197458536597 8.46833840642354 -2.8338267492563634e-14 4.889197458537026 2.822779468808122 5.098950297125354" Properties=species:S:1:pos:R:3 unique_starting_index=8 config_type=initial n_minim_iter=3 stress="-0.0006816377990789561 1.6531601958429633e-16 -3.264850453521791e-16 1.6531601958429633e-16 -0.0006816377990784849 3.8238535468157404e-17 -3.264850453521791e-16 3.8238535468157404e-17 0.0020663793779424787" pbc="T T T"
Si      12.03985545       4.80393234       2.00482504
Si       9.37653467       8.02485450       2.00482504
Si       7.91879464       4.10788997       2.00482504
Si       7.66389263       5.02843623       4.25984960
Si      11.37009001       4.12290759       4.25984960
Si      10.30120212       7.78533299       4.25984960
Si       9.25185425       3.45877058       4.97809632
Si      11.93547952       6.28295552       4.97809632
Si       8.14785099       7.19495072       4.97809632
Si       6.54525236       6.95964358      -0.44039892
Si      10.25693552       2.18853303      -0.44039892
Si      12.53299688       7.78850021      -0.44039892
Si      13.64227678       6.36463565       3.34189471
Si      17.00211021       8.63224043       3.34189471
Si      13.35839015      10.40813914       3.34189471
Si      10.09746313       3.49219886       1.51116539
Si      11.48372534       6.99856015       1.51116539
Si       7.75399629       6.44591780       1.51116539
Si      14.66759238       8.46833841       0.22902391
Si      14.66759238       8.46833841       2.65036979
20
Lattice="9.791768627506368 7.547215618344388e-13 1.6894218990131428e-14 4.895884313752535 8.479920379400381 -2.8360070865445657e-14 4.895884313752957 2.826640126467064 5.082287859901492" Properties=species:S:1:pos:R:3 unique_starting_index=8 config_type=initial n_minim_iter=4 stress="0.00044322575141763796 2.225532913884428e-16 -5.229701850418013e-16 2.225532913884428e-16 0.00044322575141763796 -1.1114198790655557e-16 -5.229701850418013e-16 -1.1114198790655557e-16 -0.0006032575390917082" pbc="T T T"
Si      12.06101764       4.82341603       1.99711335
Si       9.37582763       8.03343966       1.99711335
Si       7.93846063       4.10298508       1.99711335
Si       7.67451709       5.03004311       4.24774068
Si      11.39013360       4.13130521       4.24774068
Si      10.31065520       7.79849244       4.24774068
Si       9.25230972       3.46633528       4.95418670
Si      11.95544799       6.27956762       4.95418670
Si       8.16754819       7.21393786       4.95418670
Si       6.55776037       6.96390238      -0.44271471
Si      10.27374071       2.19723588      -0.44271471
Si      12.54380482       7.79870251      -0.44271471
Si      13.67133498       6.37371004       3.33595650
Si      17.01984358       8.65286838       3.33595650
Si      13.37178027      10.41318272       3.33595650
Si      10.12589321       3.49639752       1.50768425
Si      11.49262158       7.02108199       1.50768425
Si       7.75679110       6.44236125       1.50768425
Si      14.68765294       8.47992038       0.24487170
Si      14.68765294       8.47992038       2.63803147
20
Lattice="9.763384928679221 7.340511858996207e-13 1.6852532943303845e-14 4.88169246433898 8.455339375162692 -2.8319823415165497e-14 4.881692464339388 2.818446458387829 5.1077969274577635" Properties=species:S:1:pos:R:3 unique_starting_index=8 config_type=initial n_minim_iter=5 stress="-0.002408818299115803 2.6561806696669016e-16 -7.516906758086612e-16 2.6561806696669016e-16 -0.0024088182991163424 1.2580207727977877e-16 -7.516906758086612e-16 1.2580207727977877e-16 0.002577402008021508" pbc="T T T"
Si      12.03956285       4.83877032       2.00133080
Si       9.31649042       8.00718212       2.00133080
Si       7.93410153       4.06472631       2.00133080
Si       7.65022550       5.02094426       4.26802176
Si      11.35339184       4.11481750       4.26802176
Si      10.28653746       7.77491700       4.26802176
Si       9.21672839       3.45515936       4.97076680
Si      11.92614989       6.25434125       4.97076680
Si       8.14727652       7.20117815       4.97076680
Si       6.53628517       6.93796184      -0.44523556
Si      10.25017607       2.19160809      -0.44523556
Si      12.50369355       7.78110883      -0.44523556
Si      13.65067668       6.35535450       3.35925063
Si      16.96091801       8.64415554       3.35925063
Si      13.32363750      10.36650809       3.35925063
Si      10.12803951       3.48710651       1.51790469
Si      11.44282729       7.02758625       1.51790469
Si       7.71928800       6.39598600       1.51790469
Si      14.64507740       8.45533938       0.26132200
Si      14.64507740       8.45533938       2.65473249
20
Lattice="9.762243978082765 6.748788034392025e-13 1.6867134770663522e-14 4.881121989040802 8.454351282961666 -2.8332126542422724e-14 4.881121989041178 2.818117094320801 5.111393729623169" Properties=species:S:1:pos:R:3 unique_starting_index=8 config_type=initial n_minim_iter=6 stress="-0.0030944978987803235 3.6760512365522454e-16 -1.042174272823133e-15 3.6760512365522454e-16 -0.003094497898781469 2.8996782068318116e-16 -1.042174272823133e-15 2.8996782068318116e-16 0.004461176511140814" pbc="T T T"
Si      12.09005093       4.94391401       1.98108950
Si       9.19790737       7.99833424       1.98108950
Si       7.99877364       3.96645433       1.98108950
Si       7.64365143       5.05167951       4.25845319
Si      11.32777946       4.09375656       4.25845319
Si      10.31530105       7.76326650       4.25845319
Si       9.19676442       3.44403453       4.95262590
Si      11.94348436       6.24261435       4.95262590
Si       8.14648317       7.22205369       4.95262590
Si       6.51782113       6.92256108      -0.43722134
Si      10.27046364       2.18331814      -0.43722134
Si      12.49844717       7.80282335      -0.43722134
Si      13.71085564       6.35114688       3.38184111
Si      16.93104957       8.69837585       3.38184111
Si      13.28819269      10.31353112       3.38184111
Si      10.23863072       3.49220275       1.52807678
Si      11.38083630       7.12081293       1.52807678
Si       7.66726492       6.29568689       1.52807678
Si      14.64336597       8.45435128       0.29541410
Si      14.64336597       8.45435128       2.67732356
20
Lattice="9.789556344732391 6.407869537889102e-13 1.6933367963313566e-14 4.894778172365643 8.478004486317701 -2.838925450628862e-14 4.894778172366 2.8260014954394688 5.0829205813093745" Properties=species:S:1:pos:R:3 unique_starting_index=8 config_type=initial n_minim_iter=7 stress="-0.0010585107381421287 4.203621892473433e-16 -7.373443134308745e-16 4.203621892473433e-16 -0.0010585107381428024 4.152801050617436e-16 -7.373443134308745e-16 4.152801050617436e-16 0.002595798319147125" pbc="T T T"
Si      12.15935117       5.02804955       1.95581341
Si       9.14501847       8.01628223       1.95581341
Si       8.06429941       3.91167720       1.95581341
Si       7.66564442       5.08920318       4.21865126
Si      11.33891125       4.09404121       4.21865126
Si      10.36411338       7.77276459       4.21865126
Si       9.21277935       3.44471168       4.91490474
Si      11.98951520       6.25614512       4.91490474
Si       8.16637450       7.25515218       4.91490474
Si       6.51909208       6.93575560      -0.42310329
Si      10.31302611       2.17782154      -0.42310329
Si      12.53655086       7.84243183      -0.42310329
Si      13.78427708       6.36206809       3.37470313
Si      16.96681791       8.75650008       3.37470313
Si      13.30190857      10.31544529       3.37470313
Si      10.33902004       3.50839799       1.52765219
Si      11.37124089       7.19965501       1.52765219
Si       7.65840811       6.24795598       1.52765219
Si      14.68433452       8.47800449       0.30335782
Si      14.68433452       8.47800449       2.67976663
20
Lattice="9.835332799501032 6.146434536130059e-13 1.699805685715294e-14 4.917666399749987 8.517648059042518 -2.851025527562026e-14 4.917666399750328 2.8392160196810656 5.027427913625602" Properties=species:S:1:pos:R:3 unique_starting_index=8 config_type=initial n_minim_iter=8 stress="0.002275968424706625 3.2741864967158966e-16 -8.963455943401041e-16 3.2741864967158966e-16 0.002275968424705545 1.161468414257254e-16 -8.963455943401041e-16 1.161468414257254e-16 -0.0021175068505842514" pbc="T T T"
Si      12.25190301       5.12222678       1.92067195
Si       9.10873559       8.04934586       1.92067195
Si       8.14535982       3.86372349       1.92067195
Si       7.71013015       5.13644232       4.14190180
Si      11.36731099       4.10894741       4.14190180
Si      10.42855726       7.78990638       4.14190180
Si       9.24570772       3.45171096       4.85613718
Si      12.05854237       6.28116228       4.85613718
Si       8.20174832       7.30242288       4.85613718
Si       6.52533735       6.96472136      -0.39789563
Si      10.37637130       2.16874723      -0.39789563
Si      12.60428976       7.90182753      -0.39789563
Si      13.87321736       6.37632596       3.34743532
Si      17.04732946       8.82639569       3.34743532
Si      13.33845078      10.35022253       3.34743532
Si      10.45400768       3.53672369       1.52566851
Si      11.38076920       7.28507438       1.52566851
Si       7.67122152       6.21349806       1.52566851
Si      14.75299920       8.51764806       0.29308644
Si      14.75299920       8.51764806       2.67166659
20
Lattice="9.846834672393205 5.846191444103505e-13 1.7003320576579375e-14 4.9234173361961 8.527608973158227 -2.856969328121456e-14 4.923417336196424 2.8425363243862916 5.000711560131994" Properties=species:S:1:pos:R:3 unique_starting_index=8 config_type=initial n_minim_iter=9 stress="0.0029196564854737407 7.695587036645515e-17 -5.478403696272698e-16 7.695587036645515e-17 0.002919656485474282 -6.489122816191591e-17 -5.478403696272698e-16 -6.489122816191591e-17 -0.004855711611703387" pbc="T T T"
Si      12.29480951       5.19070319       1.90041643
Si       9.05098377       8.05226577       1.90041643
Si       8.19471075       3.81224899       1.90041643
Si       7.73489219       5.15187497       4.07336976
Si      11.36456865       4.12267565       4.07336976
Si      10.44104318       7.78066733       4.07336976
Si       9.23475100       3.45647086       4.82503949
Si      12.08290228       6.26929353       4.82503949
Si       8.22285075       7.32945356       4.82503949
Si       6.51080864       6.96184590      -0.37243373
Si      10.40912963       2.15760274      -0.37243373
Si      12.62056576       7.93576932      -0.37243373
Si      13.90090769       6.35886056       3.33914079
Si      17.08311540       8.85910891       3.33914079
Si      13.32673295      10.36485745       3.33914079
Si      10.51752930       3.55795701       1.54370278
Si      11.35362354       7.32946905       1.54370278
Si       7.66935118       6.16779189       1.54370278
Si      14.77025201       8.52760897       0.28468557
Si      14.77025201       8.52760897       2.67294786
20
Lattice="9.800933067856004 5.492661908009445e-13 1.69366692416539e-14 4.90046653392753 8.487857017554527 -2.845696671544236e-14 4.900466533927834 2.8292856725183806 5.043269492180684" Properties=species:S:1:pos:R:3 unique_starting_index=8 config_type=initial n_minim_iter=10 stress="0.00010288592025796724 1.5660294506981945e-16 -6.234305283967003e-16 1.5660294506981945e-16 0.00010288592025796724 -2.2177550428366272e-16 -6.234305283967003e-16 -2.2177550428366272e-16 -0.00042257617597527155" pbc="T T T"
Si      12.25832555       5.21836825       1.90564519
Si       8.95346389       8.00683721       1.90564519
Si       8.19100977       3.75050857       1.90564519
Si       7.71178714       5.12787951       4.05446076
Si      11.30509865       4.11466382       4.05446076
Si      10.38591342       7.73317071       4.05446076
Si       9.16123531       3.45467271       4.85684292
Si      12.02941416       6.20652615       4.85684292
Si       8.21214974       7.31451518       4.85684292
Si       6.46820712       6.90181417      -0.35502244
Si      10.39061618       2.15072460      -0.35502244
Si      12.54397591       7.92317527      -0.35502244
Si      13.84497907       6.30340128       3.37921942
Si      17.02140404       8.83840294       3.37921942
Si      13.23781571      10.32176683       3.37921942
Si      10.50793902       3.55904229       1.59206579
Si      11.26567560       7.32062098       1.59206579
Si       7.62918460       6.09605076       1.59206579
Si      14.70139961       8.48785702       0.29953942
Si      14.70139961       8.48785702       2.70219819
20
Lattice="9.759541614837284 5.47802814230161e-13 1.6853987378507305e-14 4.879770807418173 8.45201096774076 -2.8339711240385608e-14 4.879770807418473 2.817336989247126 5.088786756268243" Properties=species:S:1:pos:R:3 unique_starting_index=8 config_type=initial n_minim_iter=11 stress="-0.0028056569472100354 2.2928126711744044e-16 -6.299238102230583e-16 2.2928126711744044e-16 -0.002805656947210103 -2.917008127183023e-17 -6.299238102230583e-16 -2.917008127183023e-17 0.00457326071959726" pbc="T T T"
Si      12.20229161       5.18404992       1.90614805
Si       8.92841850       7.97546955       1.90614805
Si       8.14791474       3.74450246       1.90614805
Si       7.66486398       5.11776975       4.08425269
Si      11.25453263       4.07908205       4.08425269
Si      10.35922824       7.70717014       4.08425269
Si       9.12408411       3.45686236       4.89737864
Si      11.96331056       6.17325744       4.89737864
Si       8.19123018       7.27390213       4.89737864
Si       6.45191514       6.84574279      -0.35726525
Si      10.36453850       2.16465101      -0.35726525
Si      12.46217122       7.89362813      -0.35726525
Si      13.79396986       6.28444675       3.41342849
Si      16.93914939       8.80370494       3.41342849
Si      13.18481803      10.26788122       3.41342849
Si      10.45957364       3.54284916       1.61918425
Si      11.22109905       7.28683190       1.61918425
Si       7.59795217       6.07434088       1.61918425
Si      14.63931243       8.45201097       0.33487948
Si      14.63931243       8.45201097       2.72207453
20
Lattice="9.771687670800588 5.140635667411606e-13 1.6885110182722758e-14 4.885843835399856 8.46252976076076 -2.8361881169755468e-14 4.885843835400137 2.820843253587114 5.0672376086262485" Properties=species:S:1:pos:R:3 unique_starting_index=8 config_type=initial n_minim_iter=12 stress="-0.00043728903565688266 4.2242568481481676e-16 -4.931825857051595e-16 4.2242568481481676e-16 -0.00043728903565661134 -1.7784947683361886e-16 -4.931825857051595e-16 -1.7784947683361886e-16 0.001191482495453123" pbc="T T T"
Si      12.25197623       5.25590096       1.86787228
Si       8.86564348       7.98257218       1.86787228
Si       8.19744331       3.68658639       1.86787228
Si       7.67473632       5.15748756       4.02169250
Si      11.23949194       4.06777283       4.02169250
Si      10.40083477       7.69979913       4.02169250
Si       9.12037132       3.46974392       4.86498549
Si      11.97830330       6.16360129       4.86498549
Si       8.21638840       7.29171431       4.86498549
Si       6.44467362       6.82766405      -0.32957723
Si      10.40810803       2.16741905      -0.32957723
Si      12.46228138       7.92997643      -0.32957723
Si      13.84152623       6.28013348       3.41371134
Si      16.95554476       8.84704660       3.41371134
Si      13.17552353      10.26040920       3.41371134
Si      10.53958925       3.56020028       1.64482251
Si      11.19035684       7.34745190       1.64482251
Si       7.58511693       6.01740735       1.64482251
Si      14.65753151       8.46252976       0.35504578
Si      14.65753151       8.46252976       2.73011062
20
Lattice="9.782461382858683 5.355659732535196e-13 1.6901400524456887e-14 4.891230691428887 8.471860069096136 -2.839870606899549e-14 4.891230691429179 2.8239533563655805 5.053812367147526" Properties=species:S:1:pos:R:3 unique_starting_index=8 config_type=initial n_minim_iter=13 stress="-0.0006093162110612392 3.9679665416526616e-16 -7.446351207193921e-16 3.9679665416526616e-16 -0.0006093162110614428 -1.522467003602213e-16 -7.446351207193921e-16 -1.522467003602213e-16 -0.0009997695666891257" pbc="T T T"
Si      12.25083118       5.22477629       1.85838279
Si       8.91471818       7.99714288       1.85838279
Si       8.18183479       3.72180097       1.85838279
Si       7.68265846       5.16619665       4.00702349
Si      11.24953600       4.07027907       4.00702349
Si      10.41518970       7.70724442       4.00702349
Si       9.13943371       3.48210653       4.85752296
Si      11.97961320       6.17392850       4.85752296
Si       8.22833725       7.28768511       4.85752296
Si       6.45731453       6.83655203      -0.32204317
Si      10.41563777       2.17392241      -0.32204317
Si      12.47443185       7.93324570      -0.32204317
Si      13.83630932       6.29064674       3.39931256
Si      16.98136961       8.83727199       3.39931256
Si      13.20339731      10.28766147       3.39931256
Si      10.51514040       3.56255480       1.64520662
Si      11.22208962       7.32510131       1.64520662
Si       7.61015415       6.05606404       1.64520662
Si      14.67369208       8.47186007       0.34579358
Si      14.67369208       8.47186007       2.72242701
20
Lattice="9.818820246770821 5.45350951905202e-13 1.696058882144527e-14 4.909410123384946 8.503347768896793 -2.84521326764117e-14 4.9094101233852445 2.834449256299136 5.048710528012718" Properties=species:S:1:pos:R:3 unique_starting_index=8 config_type=initial n_minim_iter=14 stress="0.0031906348637822097 1.755202792694138e-16 -3.927837936146919e-16 1.755202792694138e-16 0.003190634863782749 -2.1596977148289676e-16 -3.927837936146919e-16 -2.1596977148289676e-16 -0.0014662859600174825" pbc="T T T"
Si      12.29386069       5.21629382       1.83344860
Si       8.97326719       8.03864875       1.83344860
Si       8.18933287       3.75175296       1.83344860
Si       7.70581642       5.20061391       4.00570673
Si      11.28086853       4.07312582       4.00570673
Si      10.46977580       7.73295581       4.00570673
Si       9.16557379       3.51445295       4.83576925
Si      12.01124807       6.18039327       4.83576925
Si       8.27963889       7.31184933       4.83576925
Si       6.49650026       6.86771242      -0.30688717
Si      10.44177695       2.19227805      -0.30688717
Si      12.51818355       7.94670507      -0.30688717
Si      13.88089979       6.32617942       3.40199832
Si      17.03737876       8.85812213       3.40199832
Si      13.26641257      10.32574176       3.40199832
Si      10.53455962       3.56673331       1.65203950
Si      11.28147904       7.33982959       1.65203950
Si       7.64042210       6.10013264       1.65203950
Si      14.72823037       8.50334777       0.36107740
Si      14.72823037       8.50334777       2.72725928
20
Lattice="9.775633995885759 5.195200650235421e-13 1.6862122681679172e-14 4.887816997942437 8.465947378536109 -2.8342058879686725e-14 4.88781699794272 2.821982459512231 5.078622340891871" Properties=species:S:1:pos:R:3 unique_starting_index=8 config_type=initial n_minim_iter=15 stress="0.00025017219375120573 2.2451967379860513e-16 -4.61589506792405e-16 2.2451967379860513e-16 0.00025017219375154384 -2.6653052004061117e-16 -4.61589506792405e-16 -2.6653052004061117e-16 9.623428471300473e-05" pbc="T T T"
Si      12.26615722       5.22830705       1.82026286
Si       8.89034266       8.00865023       1.82026286
Si       8.17040212       3.69493748       1.82026286
Si       7.66934959       5.19482512       4.01143878
Si      11.21774268       4.04443901       4.01143878
Si      10.43980973       7.69263063       4.01143878
Si       9.09620348       3.51268898       4.83877642
Si      11.96108837       6.12119880       4.83877642
Si       8.26961015       7.29800698       4.83877642
Si       6.46614019       6.83646203      -0.28748489
Si      10.39764811       2.18161065      -0.28748489
Si      12.46311369       7.91382208      -0.28748489
Si      13.83338447       6.29153393       3.43706674
Si      16.96158154       8.83429540       3.43706674
Si      13.19538698      10.27201280       3.43706674
Si      10.52261461       3.55189909       1.68095334
Si      11.21392585       7.33690202       1.68095334
Si       7.59036154       6.04309365       1.68095334
Si      14.66345100       8.46594738       0.38123151
Si      14.66345100       8.46594738       2.76269934
20
Lattice="9.769331860615932 5.230427625343562e-13 1.6852553042898142e-14 4.884665930307522 8.460489569294358 -2.8315018863095553e-14 4.884665930307806 2.8201631897649824 5.081231387692934" Properties=species:S:1:pos:R:3 unique_starting_index=8 config_type=initial n_minim_iter=16 stress="-0.0007020964598146511 7.947584485635242e-17 -3.1893424984945005e-16 7.947584485635242e-17 -0.0007020964598135683 -1.912627963139894e-16 -3.1893424984945005e-16 -1.912627963139894e-16 0.0008109303946700027" pbc="T T T"
Si      12.25974750       5.22031717       1.82193802
Si       8.88786269       8.00709420       1.82193802
Si       8.16038540       3.69356778       1.82193802
Si       7.65864483       5.19142171       4.02496740
Si      11.21343823       4.03687012       4.02496740
Si      10.43591253       7.69268731       4.02496740
Si       9.08935530       3.50884800       4.83876603
Si      11.95523458       6.11718859       4.83876603
Si       8.26340572       7.29494255       4.83876603
Si       6.46295286       6.84039346      -0.29019482
Si      10.38323279       2.17688463      -0.29019482
Si      12.46180995       7.90370105      -0.29019482
Si      13.82250360       6.28845312       3.43739154
Si      16.95078364       8.82641270       3.43739154
Si      13.18870615      10.26660289       3.43739154
Si      10.51166041       3.54593863       1.67577599
Si      11.21196058       7.33039564       1.67577599
Si       7.58437460       6.04464487       1.67577599
Si      14.65399779       8.46048957       0.37968103
Si      14.65399779       8.46048957       2.76686224
20
Lattice="9.76721698548109 5.186702796498829e-13 1.684390229470308e-14 4.883608492740104 8.458658033701752 -2.832792917798648e-14 4.883608492740385 2.819552677900778 5.0726800184525045" Properties=species:S:1:pos:R:3 unique_starting_index=8 config_type=initial n_minim_iter=17 stress="-0.0014415092551781257 1.0623275549876239e-17 -6.560922194322797e-16 1.0623275549876239e-17 -0.0014415092551772442 -1.878508210640456e-16 -6.560922194322797e-16 -1.878508210640456e-16 -0.000917360712636136" pbc="T T T"
Si      12.27571724       5.22618228       1.80228128
Si       8.87056874       8.01799183       1.80228128
Si       8.15536499       3.67314195       1.80228128
Si       7.63508472       5.20737486       4.02324948
Si      11.20717271       4.00848989       4.02324948
Si      10.45939355       7.70145132       4.02324948
Si       9.07554485       3.51488777       4.82000859
Si      11.95267945       6.10220851       4.82000859
Si       8.27342666       7.30021979       4.82000859
Si       6.45729190       6.84705350      -0.28125217
Si      10.37606575       2.16865207      -0.28125217
Si      12.46829332       7.90161050      -0.28125217
Si      13.81915551       6.27878652       3.43071687
Si      16.95448458       8.82834647       3.43071687
Si      13.17883636      10.26884112       3.43071687
Si      10.51640215       3.54269190       1.67900374
Si      11.20817172       7.33612547       1.67900374
Si       7.57707710       6.03849870       1.67900374
Si      14.65082548       8.45865803       0.38581991
Si      14.65082548       8.45865803       2.78103706
20
Lattice="9.777374696448637 5.214367731077461e-13 1.6886717519272354e-14 4.888687348223875 8.467454869443946 -2.8341208024452876e-14 4.88868734822416 2.8224849564815107 5.081305297837284" Properties=species:S:1:pos:R:3 unique_starting_index=8 config_type=initial n_minim_iter=18 stress="0.0002630132646659649 4.199779269999025e-18 -3.185546326472711e-16 4.199779269999025e-18 0.00026301326466711346 -1.1596571362336963e-16 -3.185546326472711e-16 -1.1596571362336963e-16 0.00048721826114517486" pbc="T T T"
Si      12.29051795       5.22537070       1.80025257
Si       8.88418665       8.03121541       1.80025257
Si       8.15741950       3.67832362       1.80025257
Si       7.63567990       5.21313797       4.02456312
Si      11.22219953       4.00612379       4.02456312
Si      10.47424466       7.71564799       4.02456312
Si       9.07572232       3.52943066       4.82674637
Si      11.96031162       6.09509076       4.82674637
Si       8.29609015       7.31038832       4.82674637
Si       6.46549373       6.85299911      -0.27829638
Si      10.38713122       2.17278226      -0.27829638
Si      12.47949915       7.90912837      -0.27829638
Si      13.82583658       6.27489561       3.43229683
Si      16.98498679       8.83607790       3.43229683
Si      13.18736277      10.29139109       3.43229683
Si      10.51792205       3.54872133       1.69096849
Si      11.22250555       7.33442702       1.69096849
Si       7.59169650       6.05176139       1.69096849
Si      14.66606205       8.46745487       0.39471747
Si      14.66606205       8.46745487       2.78888785
20
Lattice="9.777203069571884 5.204069957734329e-13 1.688499253543226e-14 4.8886015347855 8.467306236208708 -2.8341606712715576e-14 4.888601534785782 2.8224354120697623 5.075328761418533" Properties=species:S:1:pos:R:3 unique_starting_index=8 config_type=initial n_minim_iter=19 stress="0.0006121188684042844 7.363305779215859e-17 -4.203762574285377e-16 7.363305779215859e-17 0.000612118868405502 -2.3059916282249905e-16 -4.203762574285377e-16 -2.3059916282249905e-16 -0.0007667700396441016" pbc="T T T"
Si      12.29373393       5.22997231       1.79801119
Si       8.87825030       8.03169973       1.79801119
Si       8.15962499       3.67294043       1.79801119
Si       7.63542387       5.21867772       4.01713674
Si      11.21718673       4.00313218       4.01713674
Si      10.47899862       7.71280258       4.01713674
Si       9.07612404       3.53219984       4.82393085
Si      11.95736933       6.09405406       4.82393085
Si       8.29811585       7.30835857       4.82393085
Si       6.46603278       6.85575261      -0.27760980
Si      10.38413383       2.17187234      -0.27760980
Si      12.48144261       7.90698752      -0.27760980
Si      13.82878566       6.26666901       3.42222881
Si      16.99012182       8.84274518       3.42222881
Si      13.17850634      10.29250452       3.42222881
Si      10.52299043       3.55241887       1.69110002
Si      11.21642594       7.33696760       1.69110002
Si       7.59219285       6.04522600       1.69110002
Si      14.66580461       8.46730624       0.40266815
Si      14.66580461       8.46730624       2.78771199
20
Lattice="9.771909434241293 5.223739463963166e-13 1.6870161599320697e-14 4.8859547171202005 8.46272181353404 -2.83199601091166e-14 4.885954717120485 2.8209072711782093 5.079532514268334" Properties=species:S:1:pos:R:3 unique_starting_index=8 config_type=initial n_minim_iter=20 stress="0.00019078361455582074 1.6172889609168525e-16 -4.016565587042254e-16 1.6172889609168525e-16 0.0001907836145569033 -3.820055710815342e-17 -4.016565587042254e-16 -3.820055710815342e-17 -0.0002662005461037756" pbc="T T T"
Si      12.28649504       5.22240710       1.79926353
Si       8.87783413       8.02921328       1.79926353
Si       8.15139914       3.67382325       1.79926353
Si       7.62997205       5.21699128       4.02366953
Si      11.21078587       3.99925398       4.02366953
Si      10.47497040       7.70919837       4.02366953
Si       9.06996669       3.53250684       4.82705105
Si      11.94959487       6.08856814       4.82705105
Si       8.29616675       7.30436865       4.82705105
Si       6.46535200       6.85614110      -0.27792432
Si      10.37355051       2.17108853      -0.27792432
Si      12.47682580       7.89821400      -0.27792432
Si      13.81965459       6.26164174       3.42251261
Si      16.98316020       8.83735108       3.42251261
Si      13.17077768      10.28917263       3.42251261
Si      10.51358731       3.55006782       1.69131775
Si      11.21257630       7.32999978       1.69131775
Si       7.58956470       6.04537602       1.69131775
Si      14.65786415       8.46272181       0.40704309
Si      14.65786415       8.46272181       2.79115456
20
Lattice="9.767731635474409 5.219046664788103e-13 1.6862017558245397e-14 4.883865817736759 8.459103733670018 -2.8303363632666834e-14 4.883865817737043 2.819701244556868 5.083120303333105" Properties=species:S:1:pos:R:3 unique_starting_index=8 config_type=initial n_minim_iter=21 stress="-6.515882193067458e-05 -6.193580333814974e-17 -2.543875330101607e-16 -6.193580333814974e-17 -6.51588219294565e-05 -7.497156417054632e-17 -2.543875330101607e-16 -7.497156417054632e-17 7.574718766951155e-06" pbc="T T T"
Si      12.28191003       5.21881390       1.79899312
Si       8.87488285       8.02703914       1.79899312
Si       8.14640204       3.67235443       1.79899312
Si       7.62545064       5.21693116       4.02764904
Si      11.20474305       3.99536839       4.02764904
Si      10.47300123       7.70590793       4.02764904
Si       9.06376424       3.53259154       4.82886823
Si      11.94426714       6.08315431       4.82886823
Si       8.29516354       7.30246162       4.82886823
Si       6.46418682       6.85533051      -0.27694734
Si      10.36647949       2.17048474      -0.27694734
Si      12.47252860       7.89239222      -0.27694734
Si      13.81331890       6.25746720       3.42361116
Si      16.97740990       8.83395147       3.42361116
Si      13.16406357      10.28589253       3.42361116
Si      10.50899509       3.54874635       1.69243745
Si      11.20766125       7.32668354       1.69243745
Si       7.58653858       6.04277759       1.69243745
Si      14.65159746       8.45910373       0.41175450
Si      14.65159746       8.45910373       2.79535176
