22
Lattice="5.843136243444555 1.543885877671986 0.5487682362968606 4.3902325232953725 7.396257520855084 1.4054836746848087 2.7840888123889656 4.0805678660830615 12.20227041583072" Properties=species:S:1:pos:R:3 unique_starting_index=40 config_type=initial n_minim_iter=15 energy=-3582.0250647498865 free_energy=-3582.0250647498865 pbc="T T T"
Si       9.52950520       7.78226182      11.10783498
Si       2.69955684       4.54019016       4.58602257
Si       6.00812878       3.40473758       5.86906204
Si       6.50960277       9.00945658      10.89576612
Si       5.98179292       5.58406749      11.25336226
Si       8.65015626       8.39850137       5.70752996
Si       7.37910186       3.80048253       2.62973896
Si       8.08121141       8.86309904       7.93085650
Si       5.29219989       3.38219121       1.60062874
Si       8.32546781       9.46457168      12.48525901
Si       6.56368162       7.50177939       9.06650991
Si       5.37606968      10.92051949       9.79576911
Si       3.03293927       3.45936045       0.60306408
Si       2.90598174       3.68080103       6.85047115
Si       5.56533104       3.42568723      12.21438241
Si      10.16208502       8.59206561       8.94286913
Si       5.21750271       6.27033605       5.29829023
Si       6.28251626       8.36974047       5.37887236
Si       6.75927723       5.86790012       3.58825519
Si       4.93383328       4.95858237       7.38581577
Si       8.34878042       5.84583144      11.98434898
Si       4.57548231       3.29203168       3.87421184
