14
Lattice="12.519675850973044 -2.0048272077752276e-31 1.1382116056564322e-46 9.283218436450591e-32 5.797152254687906 -9.500422621823807e-16 -2.426761165913015e-47 6.14959186185757e-16 3.7524773103761384" Properties=species:S:1:pos:R:3 unique_starting_index=130 config_type=initial n_minim_iter=1 energy=-2280.039569127326 free_energy=-2280.039569127326 pbc="T T T"
Si       2.01594457       1.76603680       4.06114937
Si      10.50373128       4.66461293      -0.30867206
Si      10.50373128       1.13253933       4.06114937
Si       2.01594457       4.03111545      -0.30867206
Si       5.34169664       2.20080821       2.78970154
Si       7.17797921       5.09938433       0.96277577
Si       7.17797921       0.69776792       2.78970154
Si       5.34169664       3.59634405       0.96277577
Si       9.22309548       1.77120561       2.19909875
Si       3.29658037       4.66978174       1.55337856
Si       3.29658037       1.12737051       2.19909875
Si       9.22309548       4.02594664       1.55337856
Si      12.51967585       4.34786419       2.21197668
Si      -0.00000000       1.44928806       1.54050063
14
Lattice="12.55321758559869 -2.005296632007186e-31 1.1408807170800642e-46 9.276502534110991e-32 5.778783795903347 -9.429736572715725e-16 -2.4273127120805204e-47 6.191134704847838e-16 3.761795599239778" Properties=species:S:1:pos:R:3 unique_starting_index=130 config_type=initial n_minim_iter=2 stress="0.0015871955993061388 -3.905662986055005e-17 1.6513130559238043e-17 -3.905662986055005e-17 -0.00037364099758765924 -3.465750477332388e-17 1.6513130559238043e-17 -3.465750477332388e-17 0.0017605556667804757" pbc="T T T"
Si       2.02200223       1.75914230       4.07075838
Si      10.53121536       4.64853420      -0.30896278
Si      10.53121536       1.13024959       4.07075838
Si       2.02200223       4.01964149      -0.30896278
Si       5.35645827       2.19194572       2.79719834
Si       7.19675932       5.08133762       0.96459726
Si       7.19675932       0.69744618       2.79719834
Si       5.35645827       3.58683808       0.96459726
Si       9.24822766       1.76599990       2.20466621
Si       3.30498992       4.65539180       1.55712938
Si       3.30498992       1.12339200       2.20466621
Si       9.24822766       4.01278390       1.55712938
Si      12.55321759       4.33408785       2.21750990
Si      -0.00000000       1.44469595       1.54428569
14
Lattice="12.536977835505379 -1.9959758887099635e-31 1.1378469028062266e-46 9.267489279290259e-32 5.753723997532961 -9.425153987625987e-16 -2.4268062464518304e-47 6.153184044866595e-16 3.7530505411105293" Properties=species:S:1:pos:R:3 unique_starting_index=130 config_type=initial n_minim_iter=3 stress="-0.001621907262781288 -8.160880339535837e-17 7.364143845672322e-17 -8.160880339535837e-17 -0.0036823059654814854 4.353174491019591e-17 7.364143845672322e-17 4.353174491019591e-17 -0.001136628816523498" pbc="T T T"
Si       2.02156741       1.74654814       4.06004509
Si      10.51541043       4.62341013      -0.30699455
Si      10.51541043       1.13031386       4.06004509
Si       2.02156741       4.00717586      -0.30699455
Si       5.35061654       2.17660148       2.79234702
Si       7.18636130       5.05346347       0.96070352
Si       7.18636130       0.70026052       2.79234702
Si       5.35061654       3.57712252       0.96070352
Si       9.23774768       1.75883983       2.20015851
Si       3.29923015       4.63570182       1.55289204
Si       3.29923015       1.11802217       2.20015851
Si       9.23774768       3.99488417       1.55289204
Si      12.53697784       4.31529300       2.21292904
Si      -0.00000000       1.43843100       1.54012150
14
Lattice="12.55490786631237 -2.0034562745318663e-31 1.1402196795142492e-46 9.272773006295528e-32 5.7703505814321225 -9.453338930309817e-16 -2.42679329772456e-47 6.152205023807139e-16 3.7528213277599978" Properties=species:S:1:pos:R:3 unique_starting_index=130 config_type=initial n_minim_iter=4 stress="-0.00025376107151817325 2.45012285958999e-18 5.785983900213957e-17 2.45012285958999e-18 3.691819051289159e-05 -6.277948478630966e-17 5.785983900213957e-17 -6.277948478630966e-17 -0.0001689505415357255" pbc="T T T"
Si       2.02609853       1.74722257       4.05885037
Si      10.52880934       4.63239786      -0.30602904
Si      10.52880934       1.13795272       4.05885037
Si       2.02609853       4.02312801      -0.30602904
Si       5.35877299       2.17847816       2.79340056
Si       7.19613488       5.06365346       0.95942077
Si       7.19613488       0.70669713       2.79340056
Si       5.35877299       3.59187242       0.95942077
Si       9.25200116       1.76398470       2.20062075
Si       3.30290670       4.64915999       1.55220058
Si       3.30290670       1.12119059       2.20062075
Si       9.25200116       4.00636588       1.55220058
Si      12.55490787       4.32776294       2.21335490
Si      -0.00000000       1.44258765       1.53946643
14
Lattice="12.577047107205166 -2.0056330824130313e-31 1.1420682538154263e-46 9.270163717669651e-32 5.764766777659854 -9.438740088082688e-16 -2.4268692064005113e-47 6.157808965622003e-16 3.7540898733764854" Properties=species:S:1:pos:R:3 unique_starting_index=130 config_type=initial n_minim_iter=5 stress="0.0012303077476102779 -6.40390362224473e-17 2.8605695972293286e-17 -6.40390362224473e-17 0.00042361571463828205 -1.102787262022486e-17 2.8605695972293286e-17 -1.102787262022486e-17 3.823065932193174e-05" pbc="T T T"
Si       2.02963487       1.74200989       4.05948665
Si      10.54741224       4.62439328      -0.30539677
Si      10.54741224       1.14037350       4.05948665
Si       2.02963487       4.02275688      -0.30539677
Si       5.36439773       2.17767571       2.79274125
Si       7.21264938       5.06005910       0.96134862
Si       7.21264938       0.70470768       2.79274125
Si       5.36439773       3.58709107       0.96134862
Si       9.26711833       1.76155832       2.20151139
Si       3.30992878       4.64394171       1.55257848
Si       3.30992878       1.12082506       2.20151139
Si       9.26711833       4.00320845       1.55257848
Si      12.57704711       4.32357508       2.21658851
Si      -0.00000000       1.44119169       1.53750137
14
Lattice="12.564871933838797 -2.0031049541342844e-31 1.14103354280477e-46 9.268324441996995e-32 5.7619449455190885 -9.416563547135986e-16 -2.4271065570737394e-47 6.175650331510749e-16 3.7580447980092804" Properties=species:S:1:pos:R:3 unique_starting_index=130 config_type=initial n_minim_iter=6 stress="0.00022472932856828956 -1.5261341422711615e-16 -4.608984412322246e-17 -1.5261341422711615e-16 0.00037034118197705815 5.744165179157424e-17 -4.608984412322246e-17 5.744165179157424e-17 0.0007300893563535751" pbc="T T T"
Si       2.02776211       1.73969057       4.06343626
Si      10.53710982       4.62066305      -0.30539146
Si      10.53710982       1.14128190       4.06343626
Si       2.02776211       4.02225437      -0.30539146
Si       5.35829341       2.17632345       2.79549311
Si       7.20657853       5.05729592       0.96255169
Si       7.20657853       0.70464903       2.79549311
Si       5.35829341       3.58562150       0.96255169
Si       9.25789454       1.76047713       2.20384961
Si       3.30697739       4.64144960       1.55419519
Si       3.30697739       1.12049535       2.20384961
Si       9.25789454       4.00146782       1.55419519
Si      12.56487193       4.32145871       2.21989845
Si      -0.00000000       1.44048624       1.53814634
14
Lattice="12.566858702853995 -2.002160659272766e-31 1.1408570842613959e-46 9.265949266044777e-32 5.756813184048741 -9.419043298113478e-16 -2.426955099689474e-47 6.164214864869195e-16 3.755368314680151" Properties=species:S:1:pos:R:3 unique_starting_index=130 config_type=initial n_minim_iter=7 stress="-0.00011245593121916776 -7.927761088411356e-17 7.503848356902371e-17 -7.927761088411356e-17 -7.078155559451718e-05 -1.668572659898607e-17 7.503848356902371e-17 -1.668572659898607e-17 -0.00011771040077919658" pbc="T T T"
Si       2.02834261       1.73636950       4.06008208
Si      10.53851610       4.61477609      -0.30471376
Si      10.53851610       1.14203709       4.06008208
Si       2.02834261       4.02044369      -0.30471376
Si       5.35871158       2.17357501       2.79376358
Si       7.20814712       5.05198160       0.96160474
Si       7.20814712       0.70483158       2.79376358
Si       5.35871158       3.58323817       0.96160474
Si       9.25943749       1.75872023       2.20215199
Si       3.30742122       4.63712683       1.55321632
Si       3.30742122       1.11968636       2.20215199
Si       9.25943749       3.99809295       1.55321632
Si      12.56685870       4.31760989       2.21958907
Si      -0.00000000       1.43920330       1.53577924
14
Lattice="12.569921805229171 -2.0019968224296815e-31 1.141025219475896e-46 9.263618830502179e-32 5.753467852111943 -9.41177496922562e-16 -2.4269790963921394e-47 6.165875545930416e-16 3.7556771169752703" Properties=species:S:1:pos:R:3 unique_starting_index=130 config_type=initial n_minim_iter=8 stress="-0.00010301365885612086 -8.910789994788023e-17 6.764818283645687e-17 -8.910789994788023e-17 -0.00017491707699505526 -2.8276139989709574e-17 6.764818283645687e-17 -2.8276139989709574e-17 -0.00021812565378332446" pbc="T T T"
Si       2.02816451       1.73395818       4.05962518
Si      10.54175729       4.61069210      -0.30394806
Si      10.54175729       1.14277575       4.05962518
Si       2.02816451       4.01950967      -0.30394806
Si       5.36005939       2.17240053       2.79496038
Si       7.20986241       5.04913446       0.96071674
Si       7.20986241       0.70433339       2.79496038
Si       5.36005939       3.58106732       0.96071674
Si       9.26166265       1.75682453       2.20092485
Si       3.30825915       4.63355846       1.55475227
Si       3.30825915       1.11990939       2.20092485
Si       9.26166265       3.99664332       1.55475227
Si      12.56992181       4.31510089       2.22385798
Si      -0.00000000       1.43836696       1.53181914
14
Lattice="12.570878708464479 -2.0023408445268226e-31 1.1411806140718393e-46 9.262882222693231e-32 5.753559726948704 -9.40723104354685e-16 -2.4270433013933556e-47 6.170591994904619e-16 3.756701237232509" Properties=species:S:1:pos:R:3 unique_starting_index=130 config_type=initial n_minim_iter=9 stress="-6.971911138662254e-06 -1.0950554326027599e-16 9.820548335978284e-17 -1.0950554326027599e-16 -5.423836173969369e-05 -1.425801348082906e-17 9.820548335978284e-17 -1.425801348082906e-17 -4.6781219996555564e-05" pbc="T T T"
Si       2.02778457       1.73377461       4.06000155
Si      10.54309414       4.61055447      -0.30330031
Si      10.54309414       1.14300525       4.06000155
Si       2.02778457       4.01978512      -0.30330031
Si       5.36073833       2.17286396       2.79612109
Si       7.21014038       5.04964382       0.96058015
Si       7.21014038       0.70391590       2.79612109
Si       5.36073833       3.58069577       0.96058015
Si       9.26234006       1.75615586       2.20042353
Si       3.30853865       4.63293572       1.55627771
Si       3.30853865       1.12062400       2.20042353
Si       9.26234006       3.99740387       1.55627771
Si      12.57087871       4.31516980       2.22735995
Si      -0.00000000       1.43838993       1.52934129
14
Lattice="12.571513319931917 -2.0030511737286553e-31 1.1413861764962179e-46 9.262053178025753e-32 5.7548015278947755 -9.401634190149064e-16 -2.427146636072707e-47 6.178164636846611e-16 3.758307963179735" Properties=species:S:1:pos:R:3 unique_starting_index=130 config_type=initial n_minim_iter=10 stress="0.00011727566889836125 -3.960697641961469e-17 1.4871479325629116e-16 -3.960697641961469e-17 0.0001382100174854371 5.515834347594072e-17 1.4871479325629116e-16 5.515834347594072e-17 0.0002051774156108998" pbc="T T T"
Si       2.02747126       1.73422277       4.05967805
Si      10.54404206       4.61162353      -0.30137008
Si      10.54404206       1.14317800       4.05967805
Si       2.02747126       4.02057876      -0.30137008
Si       5.36164331       2.17389207       2.79725007
Si       7.20987001       5.05129284       0.96105790
Si       7.20987001       0.70350869       2.79725007
Si       5.36164331       3.58090946       0.96105790
Si       9.26288498       1.75533499       2.19942211
Si       3.30862834       4.63273576       1.55888585
Si       3.30862834       1.12206577       2.19942211
Si       9.26288498       3.99946653       1.55888585
Si      12.57151332       4.31610115       2.23338129
Si      -0.00000000       1.43870038       1.52492668
14
Lattice="12.570155777657462 -2.003343294709718e-31 1.1412825232530771e-46 9.261160691159311e-32 5.7557162767656 -9.404410344906982e-16 -2.4271262790641363e-47 6.176467700034785e-16 3.757776267033643" Properties=species:S:1:pos:R:3 unique_starting_index=130 config_type=initial n_minim_iter=11 stress="-7.017106736597081e-06 -6.574536627603494e-17 6.614588865779486e-17 -6.574536627603494e-17 -3.8095632877155115e-05 -4.254807948731465e-17 6.614588865779486e-17 -4.254807948731465e-17 -1.872615131711323e-05" pbc="T T T"
Si       2.02853182       1.73476738       4.05656090
Si      10.54162396       4.61262551      -0.29878463
Si      10.54162396       1.14309076       4.05656090
Si       2.02853182       4.02094890      -0.29878463
Si       5.36128124       2.17365253       2.79535670
Si       7.20887454       5.05151067       0.96241957
Si       7.20887454       0.70420561       2.79535670
Si       5.36128124       3.58206374       0.96241957
Si       9.26214357       1.75552592       2.19808566
Si       3.30801221       4.63338406       1.55969061
Si       3.30801221       1.12233222       2.19808566
Si       9.26214357       4.00019035       1.55969061
Si      12.57015578       4.31678721       2.23510388
Si      -0.00000000       1.43892907       1.52267238
14
Lattice="12.567952431711063 -2.003855207921426e-31 1.14118977648577e-46 9.260823983918205e-32 5.758003470074316 -9.407350627746248e-16 -2.4271351434057997e-47 6.176968138299272e-16 3.7577614959546803" Properties=species:S:1:pos:R:3 unique_starting_index=130 config_type=initial n_minim_iter=12 stress="-1.7161056639635653e-05 -6.124009083829472e-17 1.0874844509602147e-16 -6.124009083829472e-17 -4.86638814099428e-05 -2.9983813761265155e-17 1.0874844509602147e-16 -2.9983813761265155e-17 -4.147378289218597e-05" pbc="T T T"
Si       2.02910953       1.73532415       4.05471131
Si      10.53884290       4.61432589      -0.29694981
Si      10.53884290       1.14367758       4.05471131
Si       2.02910953       4.02267932      -0.29694981
Si       5.35995532       2.17443701       2.79534175
Si       7.20799711       5.05343875       0.96241975
Si       7.20799711       0.70456472       2.79534175
Si       5.35995532       3.58356646       0.96241975
Si       9.26029233       1.75683792       2.19548501
Si       3.30766011       4.63583966       1.56227649
Si       3.30766011       1.12216381       2.19548501
Si       9.26029233       4.00116555       1.56227649
Si      12.56795243       4.31850260       2.23800840
Si      -0.00000000       1.43950087       1.51975310
