6
Lattice="3.8346267842762622 -0.11695238135671693 -0.08125590983028838 0.0034712495945842313 6.527119691026536 0.6676496702728351 0.15263542325117485 -2.803071848054514 4.936136406154141" Properties=species:S:1:pos:R:3 unique_starting_index=156 config_type=initial n_minim_iter=1 energy=-978.27274454882 free_energy=-978.27274454882 pbc="T T T"
Si       3.63459605       1.89295909       3.02188769
Si       1.83460318      -1.43463619       2.97088778
Si       3.28750614       5.23324365       0.42498409
Si       1.46035723       0.09330292       0.13020445
Si       3.77934180       4.18851957       2.45143814
Si       1.65641320       0.95022516       2.28650371
6
Lattice="3.786868916138967 -0.08307269639908174 -0.057606642722471665 0.06230476269018621 6.45639885931264 0.6321461614798352 0.15535048178600652 -2.791325587580825 4.8691653787593445" Properties=species:S:1:pos:R:3 unique_starting_index=156 config_type=initial n_minim_iter=2 stress="-0.011139268465286909 0.0040940513683993315 0.003380706768222377 0.0040940513683993315 -0.013432250234325746 0.0013776020200386213 0.003380706768222377 0.0013776020200386213 -0.014809979957430578" pbc="T T T"
Si       3.61913555       1.89732801       2.98874578
Si       1.82291523      -1.41230438       2.93910699
Si       3.30304022       5.20754989       0.41432727
Si       1.44013138       0.11231522       0.12122723
Si       3.77252861       4.16286032       2.42590028
Si       1.66267629       0.93070910       2.26479702
6
Lattice="3.8070325259413456 -0.055231138568639405 -0.04460324419843471 0.11327552617986426 6.555542547420527 0.5506982576254169 0.1507709366180234 -2.9020686237120934 4.94507951512155" Properties=species:S:1:pos:R:3 unique_starting_index=156 config_type=initial n_minim_iter=3 stress="0.0030071861411767368 0.0054389885624532815 0.00923693052107093 0.0054389885624532815 0.003620389239457667 -0.004265117714200948 0.00923693052107093 -0.004265117714200948 0.003748456511579047" pbc="T T T"
Si       3.64079060       1.93288150       3.00259570
Si       1.84841824      -1.44693521       2.98670086
Si       3.39963042       5.32228693       0.34853663
Si       1.42795594       0.15900399       0.06783681
Si       3.79807666       4.20954023       2.42920772
Si       1.70978603       0.86974543       2.31096657
6
Lattice="3.7971108370713624 -0.07481030300469356 -0.08564875940407156 0.07284007306086054 6.5471875869037754 0.5649283123084133 0.11179220260707946 -2.8859867060147484 4.919101619179758" Properties=species:S:1:pos:R:3 unique_starting_index=156 config_type=initial n_minim_iter=4 stress="0.0011331727028353528 -0.00426509527770801 0.000596945119798478 -0.00426509527770801 -0.001910828677419658 -0.00028506682575927194 0.000596945119798478 -0.00028506682575927194 -0.0013819888427796694" pbc="T T T"
Si       3.58355634       1.92156537       2.95732797
Si       1.81688005      -1.44326712       2.95301882
Si       3.36983966       5.30173933       0.32559690
Si       1.41840988       0.16302280       0.03885033
Si       3.73343408       4.18682386       2.39570835
Si       1.67959386       0.84872826       2.29626119
6
Lattice="3.7861360771684285 -0.05293690566521343 -0.10614103789462252 0.10740598418213539 6.570338164092693 0.5746424377453512 0.06898983178740895 -2.8880698648177683 4.922215683576814" Properties=species:S:1:pos:R:3 unique_starting_index=156 config_type=initial n_minim_iter=5 stress="-0.00033471295389660946 -7.225328332983206e-05 -0.0010500141932365276 -7.225328332983206e-05 1.0828027014734391e-05 0.0008711687130203875 -0.0010500141932365276 0.0008711687130203875 0.0009923811482778456" pbc="T T T"
Si       3.57175396       1.95040860       2.94256265
Si       1.78372328      -1.43270616       2.94581316
Si       3.39382527       5.34384811       0.31925463
Si       1.41801142       0.18108001       0.02575876
Si       3.73120603       4.22590422       2.38555028
Si       1.66370479       0.85369248       2.29738007
6
Lattice="3.78422569821648 -0.03851973160727819 -0.12037729484365164 0.12996601186314208 6.599010663658815 0.5569798735146786 0.039145616762258535 -2.9124197198416093 4.914615247891145" Properties=species:S:1:pos:R:3 unique_starting_index=156 config_type=initial n_minim_iter=6 stress="6.804162144821593e-05 0.0033080804463136433 -0.0020824567449311037 0.0033080804463136433 0.0024791409190114927 0.0003436231407144667 -0.0020824567449311037 0.0003436231407144667 -0.0014061601394092624" pbc="T T T"
Si       3.57616264       1.95527113       2.90796422
Si       1.75173917      -1.44243394       2.93318807
Si       3.42428389       5.39454415       0.30067378
Si       1.42896756       0.21156992       0.01247850
Si       3.72909888       4.25322013       2.35182384
Si       1.64339224       0.83369220       2.29204937
6
Lattice="3.780721550070134 -0.049682664622919634 -0.10934460075005117 0.11224767095673056 6.579322236202657 0.5553476594178345 0.06187379229992837 -2.9073154140366797 4.931138117949924" Properties=species:S:1:pos:R:3 unique_starting_index=156 config_type=initial n_minim_iter=7 stress="-0.001973672487681662 0.0015930001088939447 -0.0009148396879166085 0.0015930001088939447 0.0001824269401900118 -1.795785140181707e-05 -0.0009148396879166085 -1.795785140181707e-05 0.0015012308761941343" pbc="T T T"
Si       3.57808362       1.93253647       2.92424722
Si       1.75724322      -1.44844022       2.94724700
Si       3.40998644       5.37538559       0.31030039
Si       1.43267715       0.21140997       0.01933609
Si       3.71834812       4.22744841       2.36531619
Si       1.64260446       0.82180872       2.30465688
6
Lattice="3.7973882101556575 -0.06696243400342466 -0.08975163300653517 0.08581408652268024 6.565955207495811 0.5534820148461066 0.10041579198014844 -2.9031352769258967 4.926355550281306" Properties=species:S:1:pos:R:3 unique_starting_index=156 config_type=initial n_minim_iter=8 stress="0.0016876964272196648 -0.001028675698555024 0.0009953798594853984 -0.001028675698555024 -0.0013114802907336553 0.00046033031591784994 0.0009953798594853984 0.00046033031591784994 -0.0005576322439129003" pbc="T T T"
Si       3.60108802       1.90448945       2.93762008
Si       1.77649154      -1.46101437       2.95097202
Si       3.40931121       5.36141629       0.32629218
Si       1.44970873       0.21234029       0.03363337
Si       3.72259436       4.19908493       2.37522212
Si       1.65466288       0.80826387       2.31131232
6
Lattice="3.786481545991175 -0.07619084264686922 -0.08321242681162556 0.07117871761059003 6.578218570150495 0.5331940329593344 0.11475380648959425 -2.9254976869105747 4.940074043352976" Properties=species:S:1:pos:R:3 unique_starting_index=156 config_type=initial n_minim_iter=9 stress="-0.002901929521666038 -0.0033623051241784305 0.0011070942596034996 -0.0033623051241784305 0.0008591428403354033 -0.002931585600338873 0.0011070942596034996 -0.002931585600338873 0.001059148261053377" pbc="T T T"
Si       3.58591635       1.88114502       2.94128011
Si       1.76408509      -1.48819191       2.95506157
Si       3.40235903       5.38437377       0.31263807
Si       1.46300967       0.22191132       0.04264721
Si       3.69262976       4.18530777       2.36406664
Si       1.65279360       0.79033159       2.32011945
6
Lattice="3.7938461285193705 -0.06728812123247606 -0.08547633242601356 0.0861044584706103 6.572541845588067 0.5488895733920626 0.10601433929986631 -2.9105094751662173 4.9368781711687655" Properties=species:S:1:pos:R:3 unique_starting_index=156 config_type=initial n_minim_iter=10 stress="-0.0007840347467454532 -0.0018345180515876843 0.0011259708700618128 -0.0018345180515876843 -0.0009510037175043417 -0.0008893178210514845 0.0011259708700618128 -0.0008893178210514845 0.0010973772204275376" pbc="T T T"
Si       3.59005328       1.89058833       2.94877588
Si       1.75171063      -1.48227785       2.94751617
Si       3.43370623       5.40197688       0.32036919
Si       1.48028539       0.23337333       0.04690917
Si       3.69609061       4.18884718       2.36830320
Si       1.65979555       0.79317402       2.32936554
6
Lattice="3.797076256417122 -0.05379699692515628 -0.09539757279512537 0.10803625087375913 6.585461722910024 0.5629654150093585 0.08349148662663577 -2.903813553615718 4.926372061450011" Properties=species:S:1:pos:R:3 unique_starting_index=156 config_type=initial n_minim_iter=11 stress="0.00027342299358336234 0.00012216037497604396 7.066737493244698e-05 0.00012216037497604396 -0.00016061967830200644 0.00036188900202215973 7.066737493244698e-05 0.00036188900202215973 -0.000143272790719322" pbc="T T T"
Si       3.58596331       1.91229513       2.94751298
Si       1.72944941      -1.47888940       2.93045728
Si       3.46831319       5.43526163       0.31858248
Si       1.49550204       0.24256035       0.04940670
Si       3.69537748       4.20932226       2.35967774
Si       1.66202464       0.80613348       2.33156033
6
Lattice="3.798792366717233 -0.03985830993155198 -0.1062268311487987 0.1303308824243182 6.595907447133013 0.569299161643783 0.05940362886141259 -2.9026771165036775 4.923455900772859" Properties=species:S:1:pos:R:3 unique_starting_index=156 config_type=initial n_minim_iter=12 stress="0.000780808891718766 0.0017965600853273465 -0.0009021207979555501 0.0017965600853273465 0.0006211166980271917 0.0007563881161955802 -0.0009021207979555501 0.0007563881161955802 -0.00021851133632397673" pbc="T T T"
Si       3.58240619       1.93436322       2.94979419
Si       1.70046568      -1.47881903       2.91294941
Si       3.51243255       5.46350398       0.30920180
Si       1.51159256       0.24941505       0.04873483
Si       3.68657680       4.22572821       2.34394240
Si       1.65990348       0.81772183       2.33991952
6
Lattice="3.797486578129151 -0.05185185780528604 -0.09689518931126474 0.11113374467876738 6.588144784784291 0.5613193221413861 0.08012550600072334 -2.906352777770128 4.928487148655315" Properties=species:S:1:pos:R:3 unique_starting_index=156 config_type=initial n_minim_iter=13 stress="-0.00028930063801213134 -0.00015103735409071784 -0.0001112593284948984 -0.00015103735409071784 -4.603839754698458e-06 0.00013428563628525156 -0.0001112593284948984 0.00013428563628525156 -0.0003363569069113215" pbc="T T T"
Si       3.58986219       1.92106150       2.96091445
Si       1.69933663      -1.48721038       2.91396083
Si       3.50960076       5.43964243       0.31421981
Si       1.51722671       0.23989193       0.05192363
Si       3.66990593       4.20919748       2.34108266
Si       1.65367349       0.81378968       2.34904918
6
Lattice="3.800438120702277 -0.05200729748333447 -0.09264383021461954 0.11119924074657227 6.584364970998614 0.5472787500787323 0.08578646281241412 -2.9166604926525075 4.941306665053192" Properties=species:S:1:pos:R:3 unique_starting_index=156 config_type=initial n_minim_iter=14 stress="0.0006313536637825159 -9.706040019473845e-05 0.0004968092607536552 -9.706040019473845e-05 -0.00014037181379720568 -0.0008635058805693665 0.0004968092607536552 -0.0008635058805693665 0.0016075069544317557" pbc="T T T"
Si       3.59199020       1.91483960       2.96410495
Si       1.69115696      -1.49300708       2.92080216
Si       3.52571145       5.43753703       0.30855025
Si       1.53343836       0.24450985       0.04800873
Si       3.66147711       4.19944100       2.33916547
Si       1.65913029       0.80197187       2.35659977
6
Lattice="3.798064367685237 -0.05561828215029675 -0.09015966885060792 0.10580018792942897 6.590119070589648 0.5539577880269694 0.09145043238189193 -2.913340233599373 4.932805218168897" Properties=species:S:1:pos:R:3 unique_starting_index=156 config_type=initial n_minim_iter=15 stress="0.00037725533659739097 -9.333707272412588e-05 0.00022765206773354193 -9.333707272412588e-05 7.931918530868276e-06 0.0002561573521268498 0.00022765206773354193 0.0002561573521268498 -0.0003900496547723322" pbc="T T T"
Si       3.58713120       1.92034952       2.96374287
Si       1.67383479      -1.48900271       2.91792641
Si       3.52960590       5.42773013       0.32205817
Si       1.55663024       0.23715299       0.04803272
Si       3.64361103       4.20476270       2.34459725
Si       1.65986422       0.81148073       2.35120085
6
Lattice="3.7906406874961087 -0.053044971190611426 -0.09835889252580769 0.10867158338405879 6.591929520406169 0.5478371660829313 0.07865706161351385 -2.9192402364410124 4.938355531176086" Properties=species:S:1:pos:R:3 unique_starting_index=156 config_type=initial n_minim_iter=16 stress="-0.0016690839612913723 0.00031218099002968926 -0.000566551486656181 0.00031218099002968926 -1.4571803178404002e-05 -0.0008603293338683738 -0.000566551486656181 -0.0008603293338683738 0.00026383892427555807" pbc="T T T"
Si       3.57634507       1.92119865       2.95329764
Si       1.64758382      -1.48518297       2.92177638
Si       3.54320741       5.42788021       0.30812745
Si       1.57073510       0.23423296       0.04097365
Si       3.61663708       4.20720297       2.34421472
Si       1.64836497       0.81034945       2.34153317
6
Lattice="3.792894517782191 -0.05451470922789233 -0.09778545354030124 0.10643610186511694 6.593255427097806 0.5536849976362735 0.0806399640199651 -2.915241181367055 4.936406417012471" Properties=species:S:1:pos:R:3 unique_starting_index=156 config_type=initial n_minim_iter=17 stress="-0.0009306406909465831 0.00014867514381091773 -0.0003334805224801581 0.00014867514381091773 9.123631084385706e-05 -0.0004976184599232182 -0.0003334805224801581 -0.0004976184599232182 0.00018474407450621766" pbc="T T T"
Si       3.57869269       1.92219845       2.95491204
Si       1.64153700      -1.48028547       2.92430826
Si       3.55403110       5.42613222       0.31096149
Si       1.58073916       0.22958209       0.04170249
Si       3.60710226       4.20942080       2.35450349
Si       1.64793085       0.81420519       2.33715937
6
Lattice="3.7961708667714817 -0.05584170178008229 -0.0959010990223737 0.10461728381973633 6.592797385057246 0.5594822157760637 0.08426036609540019 -2.9104555702561083 4.933970026033288" Properties=species:S:1:pos:R:3 unique_starting_index=156 config_type=initial n_minim_iter=18 stress="-7.08460946384206e-05 -5.0558924286602915e-05 2.1249426994402002e-06 -5.0558924286602915e-05 7.794838384669935e-05 2.923745681701457e-05 2.1249426994402002e-06 2.923745681701457e-05 -1.70930514226097e-05" pbc="T T T"
Si       3.58250843       1.92192603       2.95768988
Si       1.64080799      -1.47651913       2.92639204
Si       3.56182831       5.42390892       0.31578833
Si       1.58667061       0.22652017       0.04306701
Si       3.60388862       4.21114096       2.36307717
Si       1.64993882       0.81734679       2.33529416
6
Lattice="3.798748972063258 -0.05539050574995555 -0.09522471373894821 0.10545044044139243 6.590107059376974 0.5607613416993265 0.08496694927393571 -2.908301197734278 4.933847185251144" Properties=species:S:1:pos:R:3 unique_starting_index=156 config_type=initial n_minim_iter=19 stress="0.00029512165411829314 -9.892729662495699e-05 0.0001329371189822183 -9.892729662495699e-05 2.2939980447835683e-05 0.00018750943306329216 0.0001329371189822183 0.00018750943306329216 -5.8495935355927465e-05" pbc="T T T"
Si       3.58491048       1.92003248       2.95842194
Si       1.63950299      -1.47507255       2.92826249
Si       3.56933501       5.42188970       0.31689264
Si       1.59023236       0.22569828       0.04314735
Si       3.60343133       4.21238829       2.36518910
Si       1.65212586       0.81849506       2.33518594
6
Lattice="3.798385964137559 -0.05467576142186725 -0.0958530540632356 0.10650535618401703 6.589386883564429 0.5593458626453249 0.08361125141570004 -2.909107719790934 4.934538710087447" Properties=species:S:1:pos:R:3 unique_starting_index=156 config_type=initial n_minim_iter=20 stress="0.00011245444871173357 -4.0636190028073926e-05 3.9602813736547916e-05 -4.0636190028073926e-05 -6.159663067236793e-06 7.048706796721949e-05 3.9602813736547916e-05 7.048706796721949e-05 -3.598855302200763e-05" pbc="T T T"
Si       3.58431025       1.91976002       2.95740530
Si       1.63889037      -1.47553343       2.92834740
Si       3.56944179       5.42181325       0.31539090
Si       1.58941435       0.22620377       0.04255086
Si       3.60409207       4.21258770       2.36320681
Si       1.65197293       0.81797043       2.33538178
6
Lattice="3.7981063278110043 -0.05414377314671756 -0.09619427734989267 0.10732026318467587 6.5890070481699405 0.5584317632444816 0.08276656678457701 -2.9096734320257074 4.935096448433783" Properties=species:S:1:pos:R:3 unique_starting_index=156 config_type=initial n_minim_iter=21 stress="-1.3211889252041446e-05 5.197454048683487e-07 -1.8967485969868632e-05 5.197454048683487e-07 -9.208071258851527e-06 -1.3546942116069977e-05 -1.8967485969868632e-05 -1.3546942116069977e-05 3.6456513676611655e-06" pbc="T T T"
Si       3.58399870       1.91974896       2.95678972
Si       1.63836236      -1.47585976       2.92859889
Si       3.56962312       5.42187911       0.31437677
Si       1.58884625       0.22647465       0.04226843
Si       3.60463566       4.21295910       2.36202988
Si       1.65196988       0.81760708       2.33558948
