10
Lattice="5.251386999688297 0.0 0.0 0.0 5.850099152915666 0.0 0.0 0.0 9.914334789557163" Properties=species:S:1:pos:R:3 unique_starting_index=142 config_type=initial n_minim_iter=13 energy=-1624.899566543541 free_energy=-1624.899566543541 pbc="T T T"
Si       1.44417497       1.21970916       3.96482484
Si       3.80721203       4.63039000       3.96482484
Si       3.80721203       1.21970916       3.96482484
Si       1.44417497       4.63039000       3.96482484
Si       3.94838633       1.69676780       1.63781802
Si       1.30300067       4.15333135       1.63781802
Si       1.30300067       1.69676780       1.63781802
Si       3.94838633       4.15333135       1.63781802
Si       0.00000000       4.16452545       5.76315676
Si       0.00000000       1.68557371       5.76315676
