8
Lattice="5.573559999999999 1.191468558262677e-31 0.0 -2.786779999999999 4.826844549516794 0.0 0.0 0.0 5.80078" Properties=species:S:1:pos:R:3 unique_starting_index=80 config_type=initial n_minim_iter=1 pbc="T T T"
Si       2.83545780       3.14253259       4.12598460
Si       1.43431777       0.88431267       4.12598460
Si       4.09056360       0.79999977       4.12598460
Si       1.30378360       4.02684510       4.12598460
Si       0.04867780       1.68431228       4.12598460
Si      -1.35246223       3.94253220       4.12598460
Si       2.78677972       1.60894834       3.37999733
Si      -0.00000028       3.21789653       3.37999733
8
Lattice="5.622171953351602 -1.4376077470231874e-17 0.0 -2.8110859766758005 4.868943736046867 0.0 0.0 0.0 5.809923901723795" Properties=species:S:1:pos:R:3 unique_starting_index=80 config_type=initial n_minim_iter=2 pbc="T T T"
Si       2.85751814       3.16977674       4.13264038
Si       1.44830543       0.88979541       4.13264038
Si       4.12743353       0.80937207       4.13264038
Si       1.31634756       4.05957199       4.13264038
Si       0.04643216       1.69916732       4.13264038
Si      -1.36278055       3.97914865       4.13264038
Si       2.81108570       1.62298141       3.38486961
Si      -0.00000028       3.24596265       3.38486961
8
Lattice="6.203787354900657 -1.7983515532905882e-17 0.0 -3.101893677450328 5.372637449020635 0.0 0.0 0.0 5.915518823849793" Properties=species:S:1:pos:R:3 unique_starting_index=80 config_type=initial n_minim_iter=3 pbc="T T T"
Si       3.12274895       3.49572617       4.20940656
Si       1.61502490       0.95651736       4.20940656
Si       4.56790626       0.92039445       4.20940656
Si       1.46601258       4.45224336       4.20940656
Si       0.02085527       1.87691163       4.20940656
Si      -1.48686877       4.41612044       4.20940656
Si       3.10189337       1.79087933       3.44142207
Si      -0.00000031       3.58175848       3.44142207
8
Lattice="6.876434482564041 1.2340803656494382e-16 0.0 -3.43821724128202 5.95516694935976 0.0 0.0 0.0 6.03040379184008" Properties=species:S:1:pos:R:3 unique_starting_index=80 config_type=initial n_minim_iter=4 pbc="T T T"
Si       3.46198953       3.88109003       4.29426778
Si       1.78431682       1.05762645       4.29426778
Si       5.06834436       1.01645106       4.29426778
Si       1.63012712       4.93871629       4.29426778
Si       0.02377229       2.07407731       4.29426778
Si      -1.65390042       4.89754089       4.29426778
Si       3.43821690       1.98505585       3.49892606
Si      -0.00000034       3.97011150       3.49892606
8
Lattice="8.47608463789568 -6.784507484465819e-16 0.0 -4.23804231894784 7.340504621044683 0.0 0.0 0.0 6.150808399223394" Properties=species:S:1:pos:R:3 unique_starting_index=80 config_type=initial n_minim_iter=5 pbc="T T T"
Si       4.25373721       4.78602990       4.38506769
Si       2.20439214       1.29083027       4.38506769
Si       6.25599635       1.26364518       4.38506769
Si       2.01795403       6.07685992       4.38506769
Si       0.01569489       2.55447521       4.38506769
Si      -2.03365018       6.04967484       4.38506769
Si       4.23804190       2.44683512       3.55360819
Si      -0.00000042       4.89366999       3.55360819
8
Lattice="7.713760098943659 -8.106286939860779e-16 0.0 -3.85688004947183 6.680312204383974 0.0 0.0 0.0 6.103766155979833" Properties=species:S:1:pos:R:3 unique_starting_index=80 config_type=initial n_minim_iter=6 pbc="T T T"
Si       3.87082432       4.35711341       4.34988092
Si       2.00497666       1.17367615       4.34988092
Si       5.69483803       1.14952331       4.34988092
Si       1.83795798       5.53078934       4.34988092
Si       0.01394427       2.32319923       4.34988092
Si      -1.85190339       5.50663650       4.34988092
Si       3.85687967       2.22677096       3.53137716
Si      -0.00000038       4.45354169       3.53137716
8
Lattice="7.352414852548463 -2.50175109253189e-15 8.049928083314549e-65 -3.6762074262742335 6.367378041468989 -3.145451776179996e-49 -4.409471461882442e-65 -3.780124585958743e-49 6.079988483386871" Properties=species:S:1:pos:R:3 unique_starting_index=80 config_type=initial n_minim_iter=7 pbc="T T T"
Si       3.68694341       4.15779307       4.33233291
Si       1.90818837       1.11409075       4.33233291
Si       5.43348941       1.09549485       4.33233291
Si       1.75728198       5.27188361       4.33233291
Si       0.01073598       2.20958540       4.33233291
Si      -1.76801906       5.25328771       4.33233291
Si       3.67620706       2.12245956       3.51942862
Si      -0.00000036       4.24491891       3.51942862
8
Lattice="7.45362905649092 -2.2657552767776515e-15 -1.446354933452383e-50 -3.7268145282454612 6.455032113306976 -1.4733474594547313e-50 -1.4867683580869457e-50 -7.87796335874292e-49 6.094168334238785" Properties=species:S:1:pos:R:3 unique_starting_index=80 config_type=initial n_minim_iter=8 pbc="T T T"
Si       3.73558507       4.21712527       4.34318792
Si       1.93369854       1.12654957       4.34318792
Si       5.51115887       1.11135791       4.34318792
Si       1.78434434       5.34367463       4.34318792
Si       0.00877054       2.23790727       4.34318792
Si      -1.79311599       5.32848297       4.34318792
Si       3.72681416       2.15167759       3.52538347
Si      -0.00000037       4.30335496       3.52538347
