10
Lattice="4.564575587168849 -9.172260863297246e-36 -2.529940513132564e-34 3.4697421774462006e-53 3.831448455534081 1.623936564738205e-10 -6.899573138459233e-37 -4.4594306554577063e-10 10.52139539709743" Properties=species:S:1:pos:R:3 unique_starting_index=72 config_type=initial n_minim_iter=1 energy=-1629.1965549764245 free_energy=-1629.1965549764245 pbc="T T T"
Si       4.05115752       3.09530637       3.80962428
Si       4.05115752       0.73614209       6.71177112
Si       1.76886973       1.17958214       1.45107342
Si       1.76886973       2.65186632       9.07032198
Si       0.88338515       1.19261411       3.64218409
Si       0.88338515       2.63883434       6.87921131
Si       3.16567294       3.10833834       1.61851361
Si       3.16567294       0.72311011       8.90288179
Si       0.20345906       0.00000000       0.00000000
Si       2.48574686       1.91572423       5.26069770
10
Lattice="4.554451585963071 -9.16383914048396e-36 -2.514605261439084e-34 2.0873594913671451e-53 3.8279305227628564 1.6224459527450678e-10 -6.664416119657148e-37 -4.4325666944853764e-10 10.45801655279315" Properties=species:S:1:pos:R:3 unique_starting_index=72 config_type=initial n_minim_iter=2 stress="-0.00425953775048959 9.129053945970383e-18 3.452770898376087e-17 9.129053945970383e-18 -0.0031384174250679428 1.1481143515745395e-13 3.452770898376087e-17 1.1481143515745395e-13 -0.005848369323476217" pbc="T T T"
Si       4.04171081       3.08839954       3.78662231
Si       4.04171081       0.73953099       6.67139424
Si       1.76448502       1.17443428       1.44238596
Si       1.76448502       2.65349625       9.01563059
Si       0.88073515       1.19131917       3.62265067
Si       0.88073515       2.63661135       6.83536589
Si       3.15796094       3.10528443       1.60635761
Si       3.15796094       0.72264609       8.85165894
Si       0.20531209       0.00000000       0.00000000
Si       2.48253788       1.91396526       5.22900828
10
Lattice="4.572715649873566 -9.205687939946743e-36 -2.5115126811014487e-34 5.535561856404355e-53 3.845411656391709 1.6298542401327298e-10 -6.588499808688594e-37 -4.427197301729017e-10 10.445341848198767" Properties=species:S:1:pos:R:3 unique_starting_index=72 config_type=initial n_minim_iter=3 stress="0.00025958300452108454 1.8143368793304764e-17 -9.836709317127311e-18 1.8143368793304764e-17 0.001954080845101524 2.479014472697144e-13 -9.836709317127311e-18 2.479014472697144e-13 -0.003893544652784505" pbc="T T T"
Si       4.05691721       3.09076079       3.78227022
Si       4.05691721       0.75465086       6.66307163
Si       1.77055938       1.16805496       1.44040071
Si       1.77055938       2.67735669       9.00494114
Si       0.88178870       1.19559879       3.62564656
Si       0.88178870       2.64981287       6.81969529
Si       3.16814653       3.11830461       1.59702436
Si       3.16814653       0.72710704       8.84831749
Si       0.21309507       0.00000000       0.00000000
Si       2.49945290       1.92270583       5.22267092
10
Lattice="4.572466363546162 -9.178455819848759e-36 -2.5214265125041813e-34 5.422774553282724e-53 3.8340362206335645 1.6250328437472423e-10 -6.711552552566873e-37 -4.4445777813205166e-10 10.486348755101734" Properties=species:S:1:pos:R:3 unique_starting_index=72 config_type=initial n_minim_iter=4 stress="-0.001239660597595851 -2.7525601616646076e-17 -1.465484299956865e-16 -2.7525601616646076e-17 -0.0023279954212235285 -1.7304662441635834e-13 -1.465484299956865e-16 -1.7304662441635834e-13 0.0017564868513435976" pbc="T T T"
Si       4.05640852       3.06825753       3.79688004
Si       4.05640852       0.76577869       6.68946871
Si       1.77017533       1.15123942       1.44629434
Si       1.77017533       2.68279680       9.04005442
Si       0.87825216       1.18916669       3.64908178
Si       0.87825216       2.64486953       6.83726698
Si       3.16448534       3.10618480       1.59409260
Si       3.16448534       0.72785142       8.89225616
Si       0.22063545       0.00000000       0.00000000
Si       2.50686863       1.91701811       5.24317438
10
Lattice="4.594424188933509 -9.238672002381678e-36 -2.508214885798991e-34 2.9786458374633785e-53 3.8591898008160483 1.6356946955222777e-10 -6.465383031118056e-37 -4.421501375283814e-10 10.431907459824895" Properties=species:S:1:pos:R:3 unique_starting_index=72 config_type=initial n_minim_iter=5 stress="0.003642838467641806 9.064195586925209e-17 -2.2727023645770146e-16 9.064195586925209e-17 0.0037973974569460505 1.8937606658860026e-13 -2.2727023645770146e-16 1.8937606658860026e-13 -0.0006695653035595362" pbc="T T T"
Si       4.07580345       3.07008120       3.77181772
Si       4.07580345       0.78910860       6.66008974
Si       1.77859136       1.14048630       1.44413601
Si       1.77859136       2.71870350       8.98777145
Si       0.87830316       1.18529553       3.64398321
Si       0.87830316       2.67389427       6.78792425
Si       3.17551525       3.11489043       1.57197052
Si       3.17551525       0.74429937       8.85993694
Si       0.23019741       0.00000000       0.00000000
Si       2.52740951       1.92959490       5.21595373
10
Lattice="4.545825465602831 -9.292579005178984e-36 -2.5185366544435096e-34 4.860722430377033e-53 3.8817079024721894 1.6452383423217522e-10 -6.534432804869523e-37 -4.4395897083898815e-10 10.474580976572367" Properties=species:S:1:pos:R:3 unique_starting_index=72 config_type=initial n_minim_iter=6 stress="-0.00035253499041888357 2.6229904175998666e-16 -1.3797876433449012e-16 2.6229904175998666e-16 0.0010176307652936614 -8.843818176842293e-15 -1.3797876433449012e-16 -8.843818176842293e-15 0.0012291789618786425" pbc="T T T"
Si       4.03985536       3.03914251       3.74342019
Si       4.03985536       0.84256539       6.73116079
Si       1.76694263       1.09828856       1.49387030
Si       1.76694263       2.78341934       8.98071068
Si       0.85952864       1.11294369       3.70446426
Si       0.85952864       2.76876421       6.77011672
Si       3.13244137       3.05379764       1.53282623
Si       3.13244137       0.82791026       8.94175474
Si       0.23240094       0.00000000       0.00000000
Si       2.50531368       1.94085395       5.23729049
10
Lattice="4.554980102269871 -9.268213538889322e-36 -2.5166745928108487e-34 4.3945010790571e-53 3.8715299289609297 1.640924761015808e-10 -6.488056399563208e-37 -4.4363523146561875e-10 10.466944700057017" Properties=species:S:1:pos:R:3 unique_starting_index=72 config_type=initial n_minim_iter=7 stress="0.00011411100375205268 3.4474110662751033e-16 -5.264565350833171e-18 3.4474110662751033e-16 -0.0012993926307373162 2.3112771432070085e-14 -5.264565350833171e-18 2.3112771432070085e-14 -0.00184621251971208" pbc="T T T"
Si       4.04783551       2.98268741       3.70685419
Si       4.04783551       0.88884252       6.76009051
Si       1.77034546       1.04692245       1.52661816
Si       1.77034546       2.82460748       8.94032654
Si       0.86119106       1.06234564       3.72571554
Si       0.86119106       2.80918428       6.74122916
Si       3.13868111       2.99811061       1.50775681
Si       3.13868111       0.87341932       8.95918789
Si       0.23331713       0.00000000       0.00000000
Si       2.51080718       1.93576496       5.23347235
10
Lattice="4.54931569739229 -9.255838134559798e-36 -2.5257771185690993e-34 4.60320294386803e-53 3.866360459371219 1.6387336381405673e-10 -6.609247282864876e-37 -4.4522988360870716e-10 10.504567786710695" Properties=species:S:1:pos:R:3 unique_starting_index=72 config_type=initial n_minim_iter=8 stress="-0.00013481734778613913 3.6432221702695676e-16 -1.5708403201563055e-18 3.6432221702695676e-16 -0.0014246360259453272 3.958989856760374e-14 -1.5708403201563055e-18 3.958989856760374e-14 -0.002356523820788309" pbc="T T T"
Si       4.04002048       2.94657716       3.69865099
Si       4.04002048       0.91978330       6.80591680
Si       1.76536263       1.01339693       1.55363290
Si       1.76536263       2.85296353       8.95093488
Si       0.86599078       1.03685258       3.74452178
Si       0.86599078       2.82950788       6.76004600
Si       3.14064863       2.97003281       1.50776211
Si       3.14064863       0.89632765       8.99680568
Si       0.22684823       0.00000000       0.00000000
Si       2.50150608       1.93318023       5.25228389
10
Lattice="4.5418357193916945 -9.246935165820178e-36 -2.5377556183018407e-34 6.301811968298394e-53 3.862641499989114 1.6371570178599945e-10 -6.769020746046869e-37 -4.47328419309736e-10 10.554077427331741" Properties=species:S:1:pos:R:3 unique_starting_index=72 config_type=initial n_minim_iter=9 stress="-0.00032381125163637723 1.5709679596764727e-16 1.1104045138677696e-16 1.5709679596764727e-16 -0.0009899881178944867 1.2864179463468527e-14 1.1104045138677696e-16 1.2864179463468527e-14 -0.0012950686982514086" pbc="T T T"
Si       4.03049372       2.93479139       3.71184645
Si       4.03049372       0.92785011       6.84223097
Si       1.75957586       1.00347064       1.56519226
Si       1.75957586       2.85917086       8.98888517
Si       0.87158348       1.03421989       3.75280236
Si       0.87158348       2.82842161       6.80127507
Si       3.14250134       2.96554064       1.52423636
Si       3.14250134       0.89710086       9.02984107
Si       0.21821044       0.00000000       0.00000000
Si       2.48912830       1.93132075       5.27703871
10
Lattice="4.531438982128885 -9.258474741685989e-36 -2.55063510570315e-34 5.909931539590826e-53 3.8674618262908815 1.6392002481999655e-10 -6.88473905024772e-37 -4.49588684632022e-10 10.607406265170372" Properties=species:S:1:pos:R:3 unique_starting_index=72 config_type=initial n_minim_iter=10 stress="0.00025557255720379805 4.679903031447711e-16 1.439373475686229e-16 4.679903031447711e-16 0.0008964902824148758 -3.5289676498404247e-14 1.439373475686229e-16 -3.5289676498404247e-14 0.0017288648376005632" pbc="T T T"
Si       4.01939861       2.93941531       3.73829224
Si       4.01939861       0.92804652       6.86911402
Si       1.75367911       1.00568439       1.56541089
Si       1.75367911       2.86177743       9.04199538
Si       0.87543700       1.04053975       3.75584707
Si       0.87543700       2.82692207       6.85155919
Si       3.14115650       2.97427067       1.54785606
Si       3.14115650       0.89319116       9.05955021
Si       0.20975140       0.00000000       0.00000000
Si       2.47547089       1.93373091       5.30370313
10
Lattice="4.524468125057672 -9.284494453676645e-36 -2.5456390037436433e-34 6.8393986579094635e-53 3.8783308134041112 1.643806823375646e-10 -6.7336998589751986e-37 -4.487188237023278e-10 10.586881944370543" Properties=species:S:1:pos:R:3 unique_starting_index=72 config_type=initial n_minim_iter=11 stress="0.00012913397843535083 3.0062475628408473e-16 -1.9405349495093004e-17 3.0062475628408473e-16 0.0016319264906064811 1.0663821416362506e-14 -1.9405349495093004e-17 1.0663821416362506e-14 0.0013810171992245648" pbc="T T T"
Si       4.01678709       2.92862946       3.73980312
Si       4.01678709       0.94970135       6.84707882
Si       1.75455303       0.98946405       1.55363785
Si       1.75455303       2.88886676       9.03324409
Si       0.87213906       1.01567244       3.74591390
Si       0.87213906       2.86265837       6.84096805
Si       3.13437312       2.95483785       1.54752708
Si       3.13437312       0.92349296       9.03935487
Si       0.20618789       0.00000000       0.00000000
Si       2.46842195       1.93916541       5.29344097
10
Lattice="4.529281806022658 -9.271245853400575e-36 -2.542114943749953e-34 9.353514053454822e-53 3.8727965912728233 1.6414606580566996e-10 -6.657043037918254e-37 -4.4810413839744114e-10 10.572375956963535" Properties=species:S:1:pos:R:3 unique_starting_index=72 config_type=initial n_minim_iter=12 stress="-0.0001298296004257565 3.004435577837227e-16 -1.80242486245068e-17 3.004435577837227e-16 0.0004515171556455016 1.784574366910572e-14 -1.80242486245068e-17 1.784574366910572e-14 3.165979681058969e-05" pbc="T T T"
Si       4.02311895       2.90512558       3.73835548
Si       4.02311895       0.96767101       6.83402048
Si       1.75847805       0.96872729       1.54783250
Si       1.75847805       2.90406931       9.02454345
Si       0.87415190       0.99386635       3.73734059
Si       0.87415190       2.87893024       6.83503537
Si       3.13879280       2.93026465       1.54884739
Si       3.13879280       0.94253194       9.02352857
Si       0.20012072       0.00000000       0.00000000
Si       2.46476163       1.93639830       5.28618798
10
Lattice="4.536970141048139 -9.255990783977653e-36 -2.5407157146635327e-34 1.2421087702111317e-52 3.866424224306269 1.638759184741882e-10 -6.604402633502683e-37 -4.4786250345992834e-10 10.566671149379097" Properties=species:S:1:pos:R:3 unique_starting_index=72 config_type=initial n_minim_iter=13 stress="3.344504886242991e-05 4.61354238963095e-16 5.336695380530665e-17 4.61354238963095e-16 -0.0005826000332929548 -2.1559299426704726e-14 5.336695380530665e-17 -2.1559299426704726e-14 -7.434920729746767e-05" pbc="T T T"
Si       4.03249981       2.88103320       3.73599905
Si       4.03249981       0.98539103       6.83067210
Si       1.76401474       0.94782108       1.54733653
Si       1.76401474       2.91860314       9.01933462
Si       0.87713845       0.97543080       3.73654450
Si       0.87713845       2.89099343       6.83012665
Si       3.14562352       2.90864291       1.54679107
Si       3.14562352       0.95778132       9.01988008
Si       0.19235159       0.00000000       0.00000000
Si       2.46083666       1.93321211       5.28333557
10
Lattice="4.537984388124274 -9.262916997206085e-36 -2.5384254693151163e-34 1.0465365811840283e-52 3.869317450884106 1.639985800089181e-10 -6.549465169276687e-37 -4.4746299778606825e-10 10.557247556377577" Properties=species:S:1:pos:R:3 unique_starting_index=72 config_type=initial n_minim_iter=14 stress="7.964846956070956e-06 4.0323660055782035e-16 -8.312461181293211e-17 4.0323660055782035e-16 -0.00030267053747127316 -4.140045961333001e-15 -8.312461181293211e-17 -4.140045961333001e-15 -0.00020448265967645793" pbc="T T T"
Si       4.03512051       2.88826382       3.73459699
Si       4.03512051       0.98105363       6.82265056
Si       1.76612832       0.95360509       1.54402679
Si       1.76612832       2.91571236       9.01322077
Si       0.87770578       0.98302021       3.73494008
Si       0.87770578       2.88629724       6.82230748
Si       3.14669797       2.91767894       1.54368370
Si       3.14669797       0.95163851       9.01356386
Si       0.18821364       0.00000000       0.00000000
Si       2.45720583       1.93465873       5.27862378
