16
Lattice="2.663480558470391 -0.27604887608446393 -0.3505167862830822 -1.4108671746703891 7.572834075154924 -2.857632346847154 -2.601287793437152 -5.675144643806484 17.541214838602993" Properties=species:S:1:pos:R:3 unique_starting_index=140 config_type=initial n_minim_iter=1 energy=-2603.073707165 free_energy=-2603.073707165 pbc="T T T"
Si       0.01779884       3.68708425      -0.30772419
Si      -0.77832522       1.48092411       3.82804105
Si       0.43785590      -1.51755354       4.91000522
Si      -1.66301637       3.72041786       2.22489006
Si       0.16869786       0.01559789      10.85555700
Si       0.21666962       0.69323731       1.71676958
Si      -0.55266902       0.38409688       8.57762832
Si      -1.91771701       2.60803609      11.33714157
Si      -1.99401981       3.80461719       4.60830823
Si       1.07483776      -2.12504288       8.37645141
Si      -1.20677898       5.95821929      -0.30018436
Si      -0.69558929       2.96391948       8.99017355
Si       2.32601193       1.07166004      -0.94547227
Si      -1.62885549       2.67520143       6.73871977
Si      -0.55738481       0.41773249       6.10914587
Si      -1.49661439      -1.97438305      11.11329830
16
Lattice="2.661546257670859 -0.2752702619945658 -0.3495059362539647 -1.4094936801798756 7.572231417707466 -2.8630873788604894 -2.5936047783742824 -5.682038890084542 17.552690029912803" Properties=species:S:1:pos:R:3 unique_starting_index=140 config_type=initial n_minim_iter=2 stress="-0.00031280836367368896 6.562022347942126e-06 9.57659320384636e-05 6.562022347942126e-06 -0.00020741246374997966 -9.143836226098832e-05 9.57659320384636e-05 -9.143836226098832e-05 0.00044068484304430873" pbc="T T T"
Si       0.01840005       3.68658064      -0.31011946
Si      -0.77559992       1.47964915       3.82940144
Si       0.43949219      -1.51820754       4.91445943
Si      -1.66102524       3.71827316       2.22379653
Si       0.17302701       0.01040507      10.86113727
Si       0.21708662       0.69228361       1.71743479
Si      -0.54830411       0.38062331       8.58251667
Si      -1.91123624       2.60244197      11.34179129
Si      -1.98972018       3.80110020       4.60919252
Si       1.07701956      -2.12818787       8.38268291
Si      -1.20490911       5.95726257      -0.30408625
Si      -0.69082802       2.95908587       8.99399273
Si       2.32452232       1.07236885      -0.94521750
Si      -1.62462134       2.67107747       6.74046568
Si      -0.55463662       0.41396513       6.11240738
Si      -1.49112888      -1.97890963      11.12005605
16
Lattice="2.6616328715478637 -0.2736100413319073 -0.3472639031967181 -1.4067632183806564 7.579577219969849 -2.8653661207464807 -2.5870309062867394 -5.700231889197196 17.532294013708555" Properties=species:S:1:pos:R:3 unique_starting_index=140 config_type=initial n_minim_iter=3 stress="-0.0003623904078734764 0.00032207325756847304 0.00015214954160206338 0.00032207325756847304 0.000558857782183386 -0.0003248530833751766 0.00015214954160206338 -0.0003248530833751766 -0.00040257970622815" pbc="T T T"
Si       0.02036990       3.69031285      -0.31511109
Si      -0.77099585       1.48150059       3.82359186
Si       0.44251947      -1.51797557       4.91249042
Si      -1.66164342       3.71852883       2.21679646
Si       0.17942878       0.00069449      10.84357711
Si       0.21720416       0.69133355       1.71420842
Si      -0.54106771       0.37655030       8.57238176
Si      -1.90311965       2.59653705      11.32438739
Si      -1.98352318       3.79811768       4.60236577
Si       1.08048612      -2.13594082       8.37451110
Si      -1.20190162       5.96333729      -0.31117104
Si      -0.68387547       2.95369500       8.98075334
Si       2.32586603       1.07525392      -0.94206656
Si      -1.62000316       2.66608355       6.72745625
Si      -0.55180883       0.40554337       6.10474923
Si      -1.48420798      -1.98848498      11.10636741
16
Lattice="2.6646347370001595 -0.27509432036083864 -0.34797169628523955 -1.4124467095768252 7.5697633891910225 -2.8624445817375705 -2.5886193843069414 -5.6817860586694175 17.53936339638012" Properties=species:S:1:pos:R:3 unique_starting_index=140 config_type=initial n_minim_iter=4 stress="0.0002126340757513771 9.314633260100524e-05 0.00010731911611402374 9.314633260100524e-05 -0.0001480160021783506 -0.00010363625890147207 0.00010731911611402374 -0.00010363625890147207 0.00036252383810303143" pbc="T T T"
Si       0.01816802       3.68603935      -0.31486226
Si      -0.77240889       1.48436122       3.82711176
Si       0.44360867      -1.51170862       4.91562374
Si      -1.66821151       3.71659625       2.22003400
Si       0.17820406       0.00585406      10.84791901
Si       0.21605200       0.69111726       1.71525713
Si      -0.54199525       0.38227866       8.57825418
Si      -1.90825538       2.60119604      11.33271300
Si      -1.98770628       3.79652676       4.60887097
Si       1.08163004      -2.12960240       8.37817722
Si      -1.20687225       5.95761992      -0.30898129
Si      -0.68769662       2.95498174       8.98808125
Si       2.32827000       1.07208430      -0.94162369
Si      -1.62467937       2.66666708       6.73244136
Si      -0.55393030       0.40694514       6.10915884
Si      -1.48502344      -1.97866506      11.11202640
16
Lattice="2.6626697786172504 -0.2769494832317164 -0.3488175839358785 -1.4152122045395454 7.567147748696986 -2.85612388028325 -2.5886628144182637 -5.669023689639545 17.526694799797877" Properties=species:S:1:pos:R:3 unique_starting_index=140 config_type=initial n_minim_iter=5 stress="-0.0007240695512565203 -6.337768436404125e-05 -3.327626848312361e-05 -6.337768436404125e-05 -0.0010384327832288311 9.782723296795917e-05 -3.327626848312361e-05 9.782723296795917e-05 -0.0007841373090610861" pbc="T T T"
Si       0.01592880       3.68546730      -0.31376922
Si      -0.77361171       1.48762109       3.82597350
Si       0.44256428      -1.50858772       4.91159948
Si      -1.67167158       3.71861172       2.22108151
Si       0.17456410       0.01137270      10.84045994
Si       0.21440593       0.69191415       1.71457701
Si      -0.54411095       0.38771471       8.57364467
Si      -1.91225765       2.60772643      11.32821158
Si      -1.98945148       3.79906098       4.60932197
Si       1.07923757      -2.12529301       8.37182987
Si      -1.20964813       5.95691238      -0.30526237
Si      -0.69223441       2.95903293       8.98475665
Si       2.32621425       1.06967221      -0.94098142
Si      -1.62760432       2.66962648       6.73053658
Si      -0.55603059       0.40986858       6.10664548
Si      -1.48548220      -1.97125675      11.10510068
16
Lattice="2.6619010955595135 -0.28076628210619015 -0.35076303319948565 -1.4215986878764475 7.57864786744091 -2.8502034018359312 -2.591100109746151 -5.660456801929188 17.53128380541725" Properties=species:S:1:pos:R:3 unique_starting_index=140 config_type=initial n_minim_iter=6 stress="-0.00015376995653012258 -0.00024164373705164128 -0.00013982241475308542 -0.00024164373705164128 0.00034721951983501 0.00032073114308925143 -0.00013982241475308542 0.00032073114308925143 -0.00018322510719846708" pbc="T T T"
Si       0.01199351       3.69246974      -0.31315552
Si      -0.77642427       1.49613633       3.82941706
Si       0.44114868      -1.50717172       4.91155311
Si      -1.68005306       3.73007556       2.22579311
Si       0.16864850       0.01983426      10.84350500
Si       0.21164166       0.69481090       1.71601847
Si      -0.54816756       0.39715244       8.57811868
Si      -1.92114158       2.62315697      11.33703293
Si      -1.99427872       3.81104161       4.61637370
Si       1.07627294      -2.12316826       8.37350235
Si      -1.21577789       5.96806832      -0.29966927
Si      -0.70090492       2.97109590       8.99198482
Si       2.32499849       1.06761711      -0.94136188
Si      -1.63438947       2.67910968       6.73722047
Si      -0.56025417       0.41521994       6.11165517
Si      -1.48736425      -1.96384424      11.10993112
16
Lattice="2.666069103731234 -0.2784086276654881 -0.35062028989919514 -1.4193061017138813 7.577841608844272 -2.865143875015329 -2.600331258804673 -5.690983342255167 17.54714084613763" Properties=species:S:1:pos:R:3 unique_starting_index=140 config_type=initial n_minim_iter=7 stress="0.0009559266033350337 -0.0002551911066540308 -0.0001498077426194768 -0.0002551911066540308 0.0005903338369514952 -0.00044818721786592984 -0.0001498077426194768 -0.00044818721786592984 0.0003313123808893265" pbc="T T T"
Si       0.01436604       3.69329754      -0.32717824
Si      -0.77540957       1.49147573       3.82742291
Si       0.43980916      -1.51613987       4.91196943
Si      -1.69170558       3.72785552       2.21918302
Si       0.17022912      -0.00165723      10.84291373
Si       0.20980226       0.69371982       1.71686516
Si      -0.54706286       0.38268926       8.57884140
Si      -1.92465716       2.59644341      11.33718150
Si      -1.99185258       3.79897877       4.61095594
Si       1.07634182      -2.13772398       8.38084531
Si      -1.21431870       5.96512938      -0.30985663
Si      -0.70230521       2.94854551       8.98921510
Si       2.33128925       1.06984429      -0.94290830
Si      -1.63742567       2.65654503       6.73666719
Si      -0.56282912       0.40109857       6.11728208
Si      -1.48743928      -1.98599106      11.11871892
16
Lattice="2.6637635078251214 -0.27569661330808387 -0.34999468366495556 -1.4108821392960214 7.571088316389692 -2.858586336827151 -2.597932157170506 -5.6732668113054014 17.546909741692613" Properties=species:S:1:pos:R:3 unique_starting_index=140 config_type=initial n_minim_iter=8 stress="0.0004867103302050511 3.2940698129456723e-05 6.166590436109389e-05 3.2940698129456723e-05 0.00030322403004553355 -0.00010127945015999505 6.166590436109389e-05 -0.00010127945015999505 0.0003459829094190383" pbc="T T T"
Si       0.01865538       3.69373083      -0.32829781
Si      -0.77040581       1.49716778       3.83046064
Si       0.43942395      -1.50988555       4.91060178
Si      -1.69357033       3.73117830       2.22307382
Si       0.17622935       0.00910334      10.84471586
Si       0.20941070       0.69732665       1.71941082
Si      -0.54093314       0.39271966       8.58201075
Si      -1.91627184       2.60451945      11.34504173
Si      -1.98136694       3.80081440       4.61675859
Si       1.07695222      -2.12730006       8.38346997
Si      -1.20688613       5.96314330      -0.30396693
Si      -0.69550774       2.95461909       8.99620923
Si       2.33188244       1.07128799      -0.94038026
Si      -1.63148131       2.65675539       6.74285389
Si      -0.56050639       0.40507466       6.12252364
Si      -1.48081627      -1.97606780      11.12143763
16
Lattice="2.6585324113697144 -0.2745675560265138 -0.3518756941010358 -1.4022618024232238 7.5648024983414865 -2.8489162987071883 -2.6052464175839485 -5.650461195268803 17.546962033389683" Properties=species:S:1:pos:R:3 unique_starting_index=140 config_type=initial n_minim_iter=9 stress="-0.000827154189692862 0.00017485834801741384 5.262317646552507e-05 0.00017485834801741384 -0.0006268053081148673 0.00019807862473734345 5.262317646552507e-05 0.00019807862473734345 -0.00039127436116294655" pbc="T T T"
Si       0.02176794       3.69542477      -0.33546123
Si      -0.76766452       1.50700221       3.83516739
Si       0.43447014      -1.50200798       4.90702305
Si      -1.70954050       3.74131489       2.22863115
Si       0.17480107       0.02015829      10.84323852
Si       0.20473231       0.70387220       1.72333524
Si      -0.54016149       0.40554860       8.58492528
Si      -1.91798075       2.61445207      11.35671685
Si      -1.97047270       3.80527890       4.62588765
Si       1.07066821      -2.11617098       8.38647008
Si      -1.20105302       5.96441777      -0.29676811
Si      -0.69858578       2.96051138       9.00466107
Si       2.33176657       1.07215096      -0.93877034
Si      -1.63223439       2.65451933       6.75232153
Si      -0.56484046       0.40735326       6.12952261
Si      -1.47697129      -1.96466099      11.12532471
16
Lattice="2.6554550962281724 -0.27505166937342523 -0.3541458022826615 -1.3975115928833195 7.570314358756242 -2.837596325967808 -2.612273089518006 -5.62710701716633 17.558104897851425" Properties=species:S:1:pos:R:3 unique_starting_index=140 config_type=initial n_minim_iter=10 stress="0.00035239651809214887 0.00017050164906126322 0.0003197963303377435 0.00017050164906126322 0.00024805358949057715 0.0003368056568038186 0.0003197963303377435 0.0003368056568038186 0.0005803558625271996" pbc="T T T"
Si       0.02776083       3.69979940      -0.36227903
Si      -0.76873065       1.51669547       3.85098796
Si       0.42824212      -1.49459349       4.90341156
Si      -1.77533140       3.77972724       2.23848565
Si       0.18893423       0.03016889      10.85541363
Si       0.19632939       0.72623454       1.73696305
Si      -0.53916198       0.41347688       8.59135579
Si      -1.92426852       2.62802486      11.38856176
Si      -1.94667032       3.82603791       4.63826263
Si       1.07460727      -2.10389254       8.40749724
Si      -1.19869805       5.98694203      -0.29375769
Si      -0.70443542       2.97084521       9.02312762
Si       2.34024554       1.08185551      -0.93713958
Si      -1.63574186       2.65575251       6.77409792
Si      -0.57445278       0.40525195       6.13097278
Si      -1.45981530      -1.95890818      11.13555025
16
Lattice="2.6523890195127504 -0.2795020379059638 -0.3619085867959015 -1.3996015060038551 7.584013964413228 -2.8437452821197255 -2.6525997325653483 -5.65495202637144 17.567273621570465" Properties=species:S:1:pos:R:3 unique_starting_index=140 config_type=initial n_minim_iter=11 stress="-0.0003408074037788484 -0.00034794101692125037 -0.0005597933745698062 -0.00034794101692125037 -9.424170463247228e-05 -0.0004886703754284366 -0.0005597933745698062 -0.0004886703754284366 -0.0005831876207088319" pbc="T T T"
Si       0.02604944       3.70782010      -0.38378678
Si      -0.78317278       1.51459374       3.85674220
Si       0.41336460      -1.50422378       4.89920545
Si      -1.82092925       3.79553082       2.23692709
Si       0.16420082       0.00740504      10.85032189
Si       0.18618206       0.73278951       1.73775122
Si      -0.56371153       0.39567722       8.58861578
Si      -1.96281409       2.61057458      11.39023793
Si      -1.95368346       3.82782652       4.63763707
Si       1.05544688      -2.12277350       8.40859261
Si      -1.20690212       6.00064361      -0.30465307
Si      -0.73680218       2.95563849       9.01854093
Si       2.34254431       1.08285429      -0.94418148
Si      -1.65950288       2.64678957       6.77343423
Si      -0.59644306       0.39188724       6.12441903
Si      -1.47861785      -1.98126309      11.14079067
16
Lattice="2.6524816746570923 -0.2763903522761054 -0.35856371207830273 -1.3943265235657158 7.579209703299097 -2.8394633434366288 -2.6384800969713518 -5.6465264642203445 17.551607126915652" Properties=species:S:1:pos:R:3 unique_starting_index=140 config_type=initial n_minim_iter=12 stress="4.454713411787715e-05 -0.0001494810275617323 -6.38360908532775e-05 -0.0001494810275617323 4.2646034338742134e-05 -0.00010484975277448238 -6.38360908532775e-05 -0.00010484975277448238 -0.0002828576584557046" pbc="T T T"
Si       0.03680903       3.72184930      -0.40192266
Si      -0.78054655       1.51773707       3.87104954
Si       0.41479289      -1.50494263       4.88817371
Si      -1.86510347       3.80851980       2.23670568
Si       0.19096528       0.00607939      10.84797123
Si       0.18648794       0.74643243       1.73967786
Si      -0.55078641       0.38948876       8.58652595
Si      -1.94843243       2.60609788      11.38670135
Si      -1.93082690       3.82783875       4.63767447
Si       1.07211515      -2.12208935       8.40563666
Si      -1.20195639       6.00251683      -0.31053907
Si      -0.71935174       2.95301802       9.01849336
Si       2.35141579       1.08585287      -0.93714868
Si      -1.64764257       2.65050349       6.76656898
Si      -0.59096512       0.39534758       6.11338002
Si      -1.45521858      -1.98366395      11.14083071
16
Lattice="2.6487901063325334 -0.27200975594001925 -0.36029126983517384 -1.3775933563832712 7.574116011914452 -2.831885941506354 -2.6532405962794536 -5.6314196560286955 17.557531600997887" Properties=species:S:1:pos:R:3 unique_starting_index=140 config_type=initial n_minim_iter=13 stress="-0.00013950619688195487 0.00011804990163934177 0.00013661144477950944 0.00011804990163934177 0.00018821302774352352 5.1813228795376904e-05 0.00013661144477950944 5.1813228795376904e-05 0.0007009160932303421" pbc="T T T"
Si       0.05053483       3.73601239      -0.43241771
Si      -0.78062360       1.52837219       3.89133560
Si       0.40600901      -1.50186780       4.87898908
Si      -1.93245616       3.83268266       2.24289976
Si       0.20407508       0.00648610      10.85286004
Si       0.18041375       0.76676399       1.74862050
Si      -0.54697056       0.38965505       8.59372842
Si      -1.94944622       2.60432410      11.40510882
Si      -1.90295360       3.83085126       4.64826741
Si       1.07390939      -2.11780129       8.41521138
Si      -1.19073049       6.01150064      -0.31424919
Si      -0.71582668       2.94995586       9.03210507
Si       2.36313028       1.09434089      -0.93319541
Si      -1.64461197       2.64785995       6.77709826
Si      -0.59710915       0.39543673       6.11599801
Si      -1.44095668      -1.98431888      11.15575764
16
Lattice="2.6521225038523517 -0.2688263792297299 -0.3597357753549194 -1.3704953222646674 7.5649005773937334 -2.8215264608228936 -2.6636399149298464 -5.619856993890612 17.517876887682682" Properties=species:S:1:pos:R:3 unique_starting_index=140 config_type=initial n_minim_iter=14 stress="0.0004309421861357671 0.00021761704880124264 3.471726490663932e-05 0.00021761704880124264 -0.00047248114960266616 0.00024313898750084848 3.471726490663932e-05 0.00024313898750084848 -0.0008739184272536834" pbc="T T T"
Si       0.05761563       3.73931755      -0.44865839
Si      -0.78626578       1.53102867       3.89328797
Si       0.40369404      -1.50363879       4.86163142
Si      -1.98360249       3.84083944       2.23901622
Si       0.21425239       0.00377862      10.83407084
Si       0.18116581       0.77982238       1.75300252
Si      -0.54451485       0.38449175       8.57727473
Si      -1.94917386       2.59981935      11.38492680
Si      -1.89252171       3.82596101       4.63665986
Si       1.08239088      -2.11776939       8.40060969
Si      -1.18520379       6.01386060      -0.32104321
Si      -0.70906550       2.94350920       9.01667808
Si       2.37707777       1.10454961      -0.92944555
Si      -1.64045892       2.65212986       6.76857180
Si      -0.59723757       0.40011056       6.10508412
Si      -1.43495178      -1.98442351      11.13848923
16
Lattice="2.649404150823772 -0.26797810943554096 -0.3624215018824376 -1.361882067777555 7.564897777913193 -2.8072385624025764 -2.681582469194766 -5.601636385578451 17.49515135225272" Properties=species:S:1:pos:R:3 unique_starting_index=140 config_type=initial n_minim_iter=15 stress="0.00015118647522178351 0.00014957254428127925 -0.00010831743619953893 0.00014957254428127925 -0.0005187811857229388 2.290592726178514e-06 -0.00010831743619953893 2.290592726178514e-06 -0.0007467585591827372" pbc="T T T"
Si       0.06467045       3.75416704      -0.49003551
Si      -0.79725124       1.54769803       3.90795891
Si       0.39624693      -1.50618218       4.84232571
Si      -2.09660827       3.87535031       2.23926327
Si       0.22434502      -0.00163722      10.82328675
Si       0.17508775       0.80896816       1.76805521
Si      -0.54284359       0.38176298       8.57077421
Si      -1.95768671       2.60031796      11.38545765
Si      -1.87100559       3.82919434       4.63284932
Si       1.08966844      -2.12257819       8.39940241
Si      -1.17995277       6.03597699      -0.33292544
Si      -0.70952138       2.93615936       9.01598648
Si       2.39631348       1.12255325      -0.92595721
Si      -1.64026588       2.65918745       6.77732038
Si      -0.60451193       0.40373527       6.10734213
Si      -1.41962045      -1.98610224      11.13917944
16
Lattice="2.648890743317004 -0.270967164925707 -0.3615068480036734 -1.3704129746072817 7.570325776836494 -2.8063692217568823 -2.668678269343086 -5.599085015231285 17.493219346020354" Properties=species:S:1:pos:R:3 unique_starting_index=140 config_type=initial n_minim_iter=16 stress="0.00014456025847099112 -1.560571597285933e-05 -3.342578324036666e-05 -1.560571597285933e-05 -0.0003052287794894056 3.498466058251111e-06 -3.342578324036666e-05 3.498466058251111e-06 -0.0006275101556923509" pbc="T T T"
Si       0.05678437       3.75513829      -0.48432845
Si      -0.79983339       1.55136447       3.90459457
Si       0.40257094      -1.50772763       4.84497522
Si      -2.09620643       3.87487633       2.23633272
Si       0.22305080       0.00074874      10.82460090
Si       0.17779051       0.80788865       1.76882815
Si      -0.53973088       0.38451162       8.57198623
Si      -1.95294304       2.60796597      11.38181751
Si      -1.87939559       3.83071012       4.62901726
Si       1.09484917      -2.12682539       8.39728752
Si      -1.18509465       6.04030220      -0.33384418
Si      -0.70600827       2.93980258       9.01603635
Si       2.39460749       1.12311285      -0.92647686
Si      -1.63756484       2.66944000       6.77913017
Si      -0.59904256       0.40833499       6.11303101
Si      -1.41755651      -1.98225106      11.13895032
16
Lattice="2.6442935909016487 -0.2744286701711619 -0.3628429127065067 -1.374549229574231 7.580552379862459 -2.8004648689405562 -2.6630910523443636 -5.586979585622219 17.50284197273888" Properties=species:S:1:pos:R:3 unique_starting_index=140 config_type=initial n_minim_iter=17 stress="-0.00040565916743077004 -0.00018825188265766968 -2.924685220623159e-07 -0.00018825188265766968 0.0006395832326470412 -5.169452594586887e-05 -2.924685220623159e-07 -5.169452594586887e-05 0.0009516200638685216" pbc="T T T"
Si       0.04889118       3.76972273      -0.49565641
Si      -0.80807945       1.56456407       3.91576560
Si       0.40785498      -1.50852579       4.84686948
Si      -2.14694430       3.89381934       2.23515805
Si       0.22187423       0.00643735      10.83632987
Si       0.17750475       0.82143349       1.77542744
Si      -0.53702166       0.38716981       8.58355214
Si      -1.95050574       2.62087932      11.39389713
Si      -1.87976546       3.83894885       4.63069486
Si       1.10119613      -2.13483033       8.40286388
Si      -1.18761111       6.05684574      -0.33653865
Si      -0.70209555       2.94470943       9.03066990
Si       2.39930314       1.12926454      -0.92830771
Si      -1.63459924       2.68807937       6.79388007
Si      -0.59618546       0.41444902       6.12562138
Si      -1.41078005      -1.97824318      11.15323675
16
Lattice="2.6464473716224464 -0.27402269955833464 -0.36040454793820065 -1.3786924381574635 7.575704992827853 -2.808353048401641 -2.648460340782865 -5.591660922300096 17.518235126300603" Properties=species:S:1:pos:R:3 unique_starting_index=140 config_type=initial n_minim_iter=18 stress="9.452770995091887e-05 -0.00019878231317119223 3.876572864134997e-05 -0.00019878231317119223 0.0009687750405440736 1.3906778233469452e-05 3.876572864134997e-05 1.3906778233469452e-05 0.000854516982424484" pbc="T T T"
Si       0.03554184       3.76610090      -0.47599123
Si      -0.80438169       1.55683615       3.90999371
Si       0.42442441      -1.50439440       4.86265370
Si      -2.10579362       3.87581120       2.22578543
Si       0.21562868       0.01489611      10.84896052
Si       0.18409726       0.81002399       1.76578543
Si      -0.53184104       0.38618559       8.59271526
Si      -1.93313197       2.61956974      11.39578706
Si      -1.89559607       3.83542517       4.62635309
Si       1.10457367      -2.13829338       8.40521141
Si      -1.18754412       6.04260560      -0.32759740
Si      -0.68953358       2.94374096       9.03853416
Si       2.39530913       1.12195207      -0.93442151
Si      -1.62849328       2.68598260       6.79663183
Si      -0.58409193       0.40868884       6.13100419
Si      -1.41874134      -1.97808789      11.15546582
16
Lattice="2.647613091000143 -0.26828630965254274 -0.3594792480248342 -1.3649153767162487 7.556967242719998 -2.800605677925681 -2.655817425205219 -5.571904918036775 17.501994122021674" Properties=species:S:1:pos:R:3 unique_starting_index=140 config_type=initial n_minim_iter=19 stress="9.108542993016164e-06 -1.5031147910889275e-06 8.431639030508045e-05 -1.5031147910889275e-06 0.00038274063714256387 2.9262488396629166e-06 8.431639030508045e-05 2.9262488396629166e-06 0.0005527483317047081" pbc="T T T"
Si       0.03859185       3.77246898      -0.50283178
Si      -0.80452069       1.55982256       3.92100582
Si       0.43033896      -1.49880242       4.85300087
Si      -2.17349215       3.89107675       2.21942938
Si       0.23000165       0.01899963      10.84538802
Si       0.18296450       0.82902093       1.76926851
Si      -0.52231321       0.38145189       8.58921156
Si      -1.92037703       2.61096372      11.39776537
Si      -1.87610577       3.83241367       4.62031479
Si       1.11544431      -2.13543862       8.40591244
Si      -1.17534735       6.03987960      -0.32562255
Si      -0.67403797       2.93217615       9.04221238
Si       2.41298545       1.13071836      -0.93403707
Si      -1.62055537       2.67636103       6.80247567
Si      -0.58095204       0.40241861       6.12796989
Si      -1.40665996      -1.97955696      11.15110222
16
Lattice="2.6484427100441787 -0.26609250942726637 -0.359260118689832 -1.359703507293736 7.548253464562303 -2.796410358706098 -2.660136385348907 -5.561993164180788 17.49207968062484" Properties=species:S:1:pos:R:3 unique_starting_index=140 config_type=initial n_minim_iter=20 stress="-1.5091484580269032e-05 3.552980228250151e-05 0.00012603704703960752 3.552980228250151e-05 9.801158595348214e-05 -2.247296295640579e-05 0.00012603704703960752 -2.247296295640579e-05 0.0003595276547836714" pbc="T T T"
Si       0.03760779       3.77592676      -0.51556150
Si      -0.80601382       1.56079421       3.92606970
Si       0.43473965      -1.49741724       4.84774456
Si      -2.20876516       3.89882302       2.21577088
Si       0.23471826       0.02028453      10.84337313
Si       0.18286233       0.83835699       1.77037434
Si      -0.51891826       0.37820557       8.58670265
Si      -1.91458803       2.60776899      11.39679104
Si      -1.86981127       3.83103735       4.61562058
Si       1.12075668      -2.13521369       8.40453172
Si      -1.17072217       6.03945452      -0.32388710
Si      -0.66689159       2.92656902       9.04302929
Si       2.42210250       1.13499053      -0.93459480
Si      -1.61756063       2.67301489       6.80470766
Si      -0.57895117       0.40036130       6.12624863
Si      -1.40304832      -1.98002377      11.14761093
16
Lattice="2.6502217206424667 -0.26334170461605066 -0.3599454166014918 -1.3528910271788128 7.536421014820308 -2.793182346201151 -2.672574503247722 -5.553704610825745 17.483073437484162" Properties=species:S:1:pos:R:3 unique_starting_index=140 config_type=initial n_minim_iter=21 stress="-5.73634327496741e-06 0.00013412394207892495 -6.375179756468764e-07 0.00013412394207892495 -0.0003763753572417607 3.2383591855783456e-05 -6.375179756468764e-07 3.2383591855783456e-05 -0.0004980858292593125" pbc="T T T"
Si       0.03370450       3.77613262      -0.52347656
Si      -0.80761630       1.55724226       3.92891710
Si       0.44037071      -1.49663941       4.84388844
Si      -2.23023115       3.90083866       2.21269400
Si       0.23107045       0.02067056      10.84181851
Si       0.18345344       0.84349214       1.76796789
Si      -0.52043002       0.37364258       8.58351895
Si      -1.91071652       2.60386236      11.39402345
Si      -1.87044957       3.82746859       4.60997585
Si       1.12058292      -2.13386709       8.40085577
Si      -1.16570086       6.03506379      -0.31764003
Si      -0.66237777       2.92048009       9.04251577
Si       2.43040994       1.13728736      -0.93747991
Si      -1.61781646       2.66633292       6.80483284
Si      -0.57751646       0.39781067       6.12344060
Si      -1.40997588      -1.98015455      11.14158464
