20
Lattice="8.28239605825039 -2.044863166574375 -2.127431244489777 -2.358593227424338 8.198572303961436 -2.127431244489469 -2.358593227424953 -2.45013163156907 8.107984121302614" Properties=species:S:1:pos:R:3 unique_starting_index=58 config_type=initial n_minim_iter=1 energy=-3254.6038789966224 free_energy=-3254.6038789966224 pbc="T T T"
Si       0.70356545       4.07280116       2.79404759
Si       4.04307423       2.75791200       0.96792956
Si       2.60204262       0.80317589       4.18015528
Si       0.96316697      -0.44152829       2.88519208
Si       2.86164415       1.07285270      -0.32703365
Si      -0.47786464       2.84551906       1.05907404
Si       2.78839133       6.09526120      -3.00816885
Si       5.98472475      -3.12523056       2.89696715
Si      -3.35073314       2.66279822       5.97147454
Si       6.91594274      -2.15787145       0.95615448
Si       0.77681827       6.95054235      -2.11835291
Si      -2.41951515       0.68523277       6.86129048
Si       3.87517253      -2.17182577       3.87638834
Si      -2.31773370       3.72341829       3.94010693
Si       3.80892912       4.02304736      -2.01676097
Si      -0.24371952       5.87792620      -0.08698530
Si      -0.30996293      -0.25570133       5.86988261
Si       5.88294330      -0.08613222      -0.02326671
Si       0.78093764       0.81124629       0.84400303
Si       2.78427196       2.89233121       3.00911860
20
Lattice="8.169149004537518 -2.007503479821367 -2.0885630374713813 -2.316950649251169 8.086829129440481 -2.088563037471078 -2.3169506492517753 -2.406872880201594 7.997866207233329" Properties=species:S:1:pos:R:3 unique_starting_index=58 config_type=initial n_minim_iter=2 stress="-0.01736682875005646 0.006458088315767904 0.006718854878519636 0.006458088315767904 -0.016874908409144605 0.0069796176273064885 0.006718854878519636 0.0069796176273064885 -0.016322196316671197" pbc="T T T"
Si       0.72264308       4.00577951       2.76286772
Si       3.97537509       2.72610323       0.98319613
Si       2.57283339       0.82115490       4.11195252
Si       0.96241431      -0.40379235       2.83754400
Si       2.81260462       1.07023179      -0.29121239
Si      -0.44012739       2.79788123       1.05787241
Si       2.73112599       5.98907954      -2.96928307
Si       5.88079943      -3.08395136       2.83728867
Si      -3.30552865       2.60721300       5.86691449
Si       6.84077635      -2.08671716       0.98345146
Si       0.80412171       6.87636133      -2.04617436
Si      -2.34555173       0.71537295       6.79002320
Si       3.80161516      -2.16185813       3.79642705
Si      -2.30497384       3.64641269       3.86387590
Si       3.73149369       3.94648749      -2.00996470
Si      -0.19624599       5.83698152      -0.04313576
Si      -0.26636746      -0.20653303       5.83070484
Si       5.84022153      -0.04413223       0.02431308
Si       0.74933829       0.77842056       0.80985185
Si       2.78590941       2.89403221       3.01088828
20
Lattice="8.275409023494685 -2.060410032338023 -2.143605866107559 -2.373862917346316 8.190998648342324 -2.1436058661072512 -2.3738629173469326 -2.4659939472270076 8.09977646719909" Properties=species:S:1:pos:R:3 unique_starting_index=58 config_type=initial n_minim_iter=3 stress="-0.0010092260358243162 0.003447271393858721 0.0035864663178511733 0.003447271393858721 -0.000746643234789707 0.003725659205982118 0.0035864663178511733 0.003725659205982118 -0.00045161032531825044" pbc="T T T"
Si       0.70131290       4.00604217       2.75471879
Si       3.97644934       2.71880356       0.96158569
Si       2.56549813       0.79952989       4.11189257
Si       0.96218505      -0.41244611       2.85097905
Si       2.82637028       1.07052664      -0.29932783
Si      -0.44876616       2.81132786       1.05784595
Si       2.72257524       6.02883876      -3.06109455
Si       5.92085526      -3.17541277       2.82663037
Si      -3.39844825       2.59511715       5.90301017
Si       6.92613143      -2.13112123       0.98593436
Si       0.80510795       6.96181586      -2.09044544
Si      -2.39317208       0.71454625       6.87365929
Si       3.81094191      -2.25091282       3.79646856
Si      -2.39431897       3.64621953       3.86980363
Si       3.73470096       3.95594315      -2.09894803
Si      -0.20701778       5.91841118      -0.05723890
Si      -0.28325872      -0.21795594       5.91151277
Si       5.92200216      -0.05792107       0.01609617
Si       0.72896763       0.75725930       0.78783613
Si       2.79871556       2.90733537       3.02472860
20
Lattice="8.289300677925802 -2.1007219459187647 -2.1855455058246402 -2.4146743149207412 8.203346047558234 -2.18554550582433 -2.414674314921362 -2.508389259382978 8.110454910634015" Properties=species:S:1:pos:R:3 unique_starting_index=58 config_type=initial n_minim_iter=4 stress="-0.005138221115038102 -0.0018080561906999378 -0.0018810624078736114 -0.0018080561906999378 -0.005275942925924687 -0.001954067557260824 -0.0018810624078736114 -0.001954067557260824 -0.005430684464226383" pbc="T T T"
Si       0.65268708       3.95726111       2.70380847
Si       3.92955422       2.66992899       0.90916388
Si       2.51844369       0.74907672       4.06113550
Si       0.94150835      -0.43408472       2.83020002
Si       2.80726496       1.04910731      -0.32177160
Si      -0.46960218       2.79141513       1.03555543
Si       2.68575005       6.00774955      -3.12694270
Si       5.90118283      -3.23972172       2.78645349
Si      -3.46196191       2.55584631       5.87933228
Si       6.92191396      -2.17937541       0.95291041
Si       0.77420199       6.95641825      -2.13996838
Si      -2.44123078       0.68178755       6.86630660
Si       3.78534193      -2.31638864       3.76116872
Si      -2.45877307       3.61205801       3.84035571
Si       3.70301719       3.92911791      -2.16576918
Si      -0.24306515       5.91375887      -0.10099181
Si      -0.32538988      -0.25563403       5.90513308
Si       5.91872511      -0.10020759      -0.02180482
Si       0.70586324       0.73325822       0.76286593
Si       2.75408880       2.86097663       2.97649797
20
Lattice="8.387053371003539 -2.1436385034067 -2.230194960515897 -2.461280053542502 8.299394603185512 -2.2301949605155835 -2.461280053543129 -2.556803794404135 8.204661766228476" Properties=species:S:1:pos:R:3 unique_starting_index=58 config_type=initial n_minim_iter=5 stress="0.006228110000057681 -0.002207600548529917 -0.0022967396836453386 -0.002207600548529917 0.006059954415722621 -0.0023858775150147685 -0.0022967396836453386 -0.0023858775150147685 0.005871018083658864" pbc="T T T"
Si       0.67418325       3.94426606       2.70871181
Si       3.91575049       2.67399820       0.93032747
Si       2.52303530       0.77076335       4.04834462
Si       0.94145795      -0.41572839       2.81394437
Si       2.79031000       1.04841114      -0.30407278
Si      -0.45125723       2.77514656       1.03556003
Si       2.66324973       6.03516221      -3.20869590
Si       5.92943194      -3.32056264       2.76179507
Si      -3.54381937       2.53021208       5.90348901
Si       7.00831263      -2.19980995       0.98247678
Si       0.80124353       7.04390946      -2.15921716
Si      -2.46493868       0.70794576       6.95296775
Si       3.82112004      -2.41934375       3.75599356
Si      -2.56301524       3.60562743       3.87195996
Si       3.70055851       3.96482832      -2.26884843
Si      -0.23606526       6.02288772      -0.12768811
Si      -0.35662678      -0.24981874       6.01312028
Si       6.02750850      -0.12732405      -0.01172171
Si       0.66364844       0.68940504       0.71724203
Si       2.80084482       2.90954727       3.02702981
20
Lattice="8.433681323812225 -2.170715168799368 -2.2583649353555666 -2.4901116697705934 8.344958291552366 -2.2583649353552513 -2.4901116697712267 -2.5867543827838215 8.249075271334126" Properties=species:S:1:pos:R:3 unique_starting_index=58 config_type=initial n_minim_iter=6 stress="0.006492795785571079 -0.0007624328522157375 -0.0007932185870152357 -0.0007624328522157375 0.006434720359803561 -0.0008240038715437166 -0.0007932185870152357 -0.0008240038715437166 0.006369467945077068" pbc="T T T"
Si       0.71632476       3.90911577       2.70776180
Si       3.87902184       2.67143579       0.97103119
Si       2.52187257       0.81289113       4.01318427
Si       0.93158540      -0.39039240       2.76131421
Si       2.73713322       1.03650616      -0.28083886
Si      -0.42556386       2.72290977       1.02458360
Si       2.63017717       6.04042042      -3.26230110
Si       5.93594501      -3.37282626       2.72685148
Si      -3.59629300       2.49511705       5.90662228
Si       7.04975098      -2.21579282       1.00549392
Si       0.82328081       7.08621715      -2.17427688
Si      -2.48248704       0.72933068       6.99464650
Si       3.88795724      -2.50979686       3.75204601
Si      -2.65594651       3.59917675       3.93510050
Si       3.69764929       4.03160318      -2.35938690
Si      -0.24419131       6.10453360      -0.20275510
Si      -0.43449926      -0.26091651       6.09173230
Si       6.10940449      -0.20213393      -0.01970061
Si       0.62155538       0.64567831       0.67174970
Si       2.83190260       2.94181043       3.06059570
20
Lattice="8.421068984173115 -2.168353958479446 -2.2559083834006355 -2.487272169543701 8.33244495211764 -2.25590838340032 -2.4872721695443336 -2.58380467986648 8.236668919573217" Properties=species:S:1:pos:R:3 unique_starting_index=58 config_type=initial n_minim_iter=7 stress="0.0021090613355109144 0.0013404229451428615 0.0013945469315223985 0.0013404229451428615 0.002211162960621355 0.0014486701262852958 0.0013945469315223985 0.0014486701262852958 0.00232588235350992" pbc="T T T"
Si       0.73223365       3.89732728       2.70612715
Si       3.86663643       2.66919122       0.98640314
Si       2.52010098       0.82874408       4.00134033
Si       0.92642365      -0.38513296       2.73844901
Si       2.71429099       1.03047071      -0.27648818
Si      -0.42011179       2.70025863       1.01872500
Si       2.62440767       6.04057834      -3.26016873
Si       5.93632239      -3.37046770       2.72118105
Si      -3.59395052       2.48943259       5.90686444
Si       7.04047516      -2.22346211       1.00367110
Si       0.82211697       7.07689028      -2.18201229
Si      -2.48979775       0.72788756       6.98502089
Si       3.91958367      -2.51566719       3.75556347
Si      -2.66301622       3.60144995       3.96659520
Si       3.70018990       4.06334930      -2.36511347
Si      -0.25366526       6.10430925      -0.24174305
Si      -0.47305903      -0.27186590       6.08996562
Si       6.10954086      -0.24071646      -0.03071132
Si       0.62671496       0.65103814       0.67732595
Si       2.81980968       2.92924817       3.04752621
20
Lattice="8.431011012351522 -2.1889392371269194 -2.2773248603987217 -2.5082209085996245 8.34159634290054 -2.2773248603984046 -2.508220908600259 -2.6055664519285697 8.244965829660021" Properties=species:S:1:pos:R:3 unique_starting_index=58 config_type=initial n_minim_iter=8 stress="-0.0025409831229871766 2.835905699453905e-05 2.9504147221758467e-05 2.835905699453905e-05 -0.002538822979565533 3.064922070030653e-05 2.9504147221758467e-05 3.064922070030653e-05 -0.002536395884585628" pbc="T T T"
Si       0.72257786       3.87267326       2.68269013
Si       3.84236775       2.64619140       0.97489710
Si       2.49804145       0.81824114       3.97577836
Si       0.91652774      -0.39320220       2.71541901
Si       2.69199132       1.01971832      -0.28546226
Si      -0.42779857       2.67765004       1.00762598
Si       2.60856628       6.04870424      -3.29899382
Si       5.94504531      -3.40864834       2.70413648
Si      -3.63243547       2.47211400       5.91344792
Si       7.04700466      -2.26392129       0.98617963
Si       0.80600291       7.08281080      -2.22313181
Si      -2.53047612       0.71021256       6.98930993
Si       3.94318345      -2.55426736       3.74777233
Si      -2.70248659       3.59279000       3.98838327
Si       3.69303839       4.08669382      -2.40399166
Si      -0.27846921       6.11088494      -0.29806716
Si      -0.52861426      -0.29880368       6.09430777
Si       6.11705578      -0.29602575      -0.05745622
Si       0.63062565       0.65510061       0.68155245
Si       2.78394354       2.89199005       3.00876366
20
Lattice="8.489402680639646 -2.222244676713921 -2.3119751166833806 -2.5437244900555878 8.398678169565024 -2.3119751166830604 -2.5437244900562304 -2.642447948469722 8.300632070855478" Properties=species:S:1:pos:R:3 unique_starting_index=58 config_type=initial n_minim_iter=9 stress="-0.003103791114218135 -0.00012366369577675675 -0.00012865702434482947 -0.00012366369577675675 -0.0031132107264008526 -0.000133650279881493 -0.00012865702434482947 -0.000133650279881493 -0.0031237944187750065" pbc="T T T"
Si       0.72875170       3.86376990       2.66100744
Si       3.83323588       2.62429502       0.97986521
Si       2.47650847       0.82359936       3.96602413
Si       0.92544522      -0.39634872       2.69681663
Si       2.67320199       1.02792667      -0.28934229
Si      -0.43128219       2.65871441       1.01567439
Si       2.59895909       6.11166172      -3.38566370
Si       6.00832280      -3.49496533       2.69350894
Si      -3.72109814       2.45912307       5.97292712
Si       7.12305184      -2.33697300       0.98317290
Si       0.80299460       7.15879854      -2.29624528
Si      -2.60636910       0.70431164       7.06234553
Si       4.00972470      -2.62720233       3.74337484
Si      -2.77790114       3.58587507       4.05187669
Si       3.68899860       4.15312946      -2.47704351
Si      -0.28704490       6.17340292      -0.37519486
Si      -0.60777101      -0.31040033       6.15372534
Si       6.17985484      -0.37284815      -0.06669300
Si       0.66041598       0.68604713       0.71374853
Si       2.74153771       2.84793842       2.96293330
20
Lattice="8.54906343950935 -2.2474136468951746 -2.338160366841188 -2.571145795781199 8.457337825216909 -2.3381603668408655 -2.5711457957818475 -2.6709334913586122 8.358209812851403" Properties=species:S:1:pos:R:3 unique_starting_index=58 config_type=initial n_minim_iter=10 stress="0.0018291767718567509 0.00014463588085035804 0.00015047603038976801 0.00014463588085035804 0.0018401938605600552 0.00015631609451025302 0.00015047603038976801 0.00015631609451025302 0.0018525724463640137" pbc="T T T"
Si       0.73668715       3.86541567       2.63910312
Si       3.83457844       2.60209164       0.98698467
Si       2.45427008       0.83069360       3.96680199
Si       0.95250176      -0.39184015       2.69490441
Si       2.67008469       1.05488410      -0.28491291
Si      -0.42780660       2.65572722       1.04278596
Si       2.58301782       6.16490606      -3.47598839
Si       6.06213526      -3.58466923       2.67604290
Si      -3.81278505       2.43967829       6.02255619
Si       7.21955690      -2.38232737       1.00584618
Si       0.82375402       7.25616420      -2.34066711
Si      -2.65536342       0.72322013       7.15787747
Si       4.04331381      -2.70387217       3.71065806
Si      -2.85579377       3.55197140       4.08120517
Si       3.65808393       4.18556552      -2.55494772
Si      -0.25131209       6.25753457      -0.39931609
Si      -0.63654197      -0.27573737       6.23683679
Si       6.26256562      -0.39848988      -0.02876898
Si       0.66842450       0.69436646       0.72240379
Si       2.73834734       2.84462423       2.95948529
20
Lattice="8.566438511862431 -2.253265888607236 -2.3442489120661496 -2.5776550583803437 8.474477585213666 -2.344248912065828 -2.577655058380994 -2.677695382305689 8.375095267731947" Properties=species:S:1:pos:R:3 unique_starting_index=58 config_type=initial n_minim_iter=11 stress="0.0035178732224955185 -0.001409698188413919 -0.0014666193906540607 -0.001409698188413919 0.0034104948189326995 -0.0015235397603675818 -0.0014666193906540607 -0.0015235397603675818 0.0032898465407766456" pbc="T T T"
Si       0.72347701       3.88943220       2.60151658
Si       3.85908033       2.56502063       0.97322068
Si       2.41629344       0.81602752       3.98931266
Si       0.99483495      -0.41038782       2.71337677
Si       2.68765138       1.09791702      -0.30271521
Si      -0.44795195       2.67253939       1.08508087
Si       2.57225220       6.22215409      -3.55256462
Si       6.11975153      -3.66084608       2.66444090
Si      -3.89109948       2.42592221       6.07672976
Si       7.30222787      -2.43247714       1.02215655
Si       0.83887619       7.33947104      -2.39013231
Si      -2.70862314       0.73632484       7.23916206
Si       4.05762253      -2.74314800       3.64725888
Si      -2.89558571       3.48811530       4.09149043
Si       3.59578850       4.19751204      -2.59670110
Si      -0.18466011       6.30425354      -0.40489299
Si      -0.64649414      -0.20941610       6.28329855
Si       6.30671410      -0.40676784       0.03933856
Si       0.68492999       0.71151254       0.74024219
Si       2.72619840       2.83200378       2.94635525
20
Lattice="8.561506864734055 -2.2431950389458737 -2.333771418716784 -2.567403816063276 8.469932787390075 -2.3337714187164615 -2.5674038160639263 -2.6670462831851296 8.370968556927457" Properties=species:S:1:pos:R:3 unique_starting_index=58 config_type=initial n_minim_iter=12 stress="-0.0009378767575504577 0.0018411098109594065 0.0019154506767978634 0.0018411098109594065 -0.0007976372127202338 0.001989790455327546 0.0019154506767978634 0.001989790455327546 -0.0006400667977110199" pbc="T T T"
Si       0.76177393       3.92160375       2.57959230
Si       3.88977106       2.54155101       1.01181591
Si       2.39167279       0.85341451       4.02059160
Si       1.03502644      -0.42398795       2.69160981
Si       2.66492530       1.13727211      -0.31716588
Si      -0.46307184       2.64922099       1.12383342
Si       2.55698502       6.28557214      -3.59985220
Si       6.18370468      -3.70758855       2.64973753
Si      -3.94024201       2.40877234       6.13822729
Si       7.36694123      -2.47842988       1.05368819
Si       0.86971421       7.40540581      -2.43480157
Si      -2.75700546       0.76534254       7.30327792
Si       4.14725955      -2.78260184       3.57870337
Si      -2.93842237       3.41612906       4.17677972
Si       3.52548469       4.28453649      -2.63883636
Si      -0.09878546       6.36597397      -0.47335400
Si      -0.72056033      -0.12630005       6.34226208
Si       6.36512160      -0.47866325       0.12472235
Si       0.67654349       0.70280054       0.73117843
Si       2.75015574       2.85689092       2.97224729
20
Lattice="8.533139061065343 -2.222876309719229 -2.3126322539493356 -2.5460201850011357 8.442358825669448 -2.312632253949015 -2.546020185001782 -2.644832740699739 8.344252528362462" Properties=species:S:1:pos:R:3 unique_starting_index=58 config_type=initial n_minim_iter=13 stress="-0.00206294515038188 0.002806674933205124 0.002920003667547535 0.002806674933205124 -0.0018491573508850982 0.0030333307443453734 0.002920003667547535 0.0030333307443453734 -0.0016089495526381563" pbc="T T T"
Si       0.76727841       3.96247644       2.57789300
Si       3.93040466       2.53957387       1.01879918
Si       2.38815065       0.85878884       4.06136506
Si       1.05294803      -0.44955855       2.70018884
Si       2.67382027       1.15554547      -0.34237704
Si      -0.48930597       2.65712327       1.14109502
Si       2.56950737       6.31053126      -3.57565547
Si       6.20816914      -3.68394341       2.66414747
Si      -3.91754507       2.42216819       6.16412417
Si       7.35864376      -2.48881819       1.05484055
Si       0.87159132       7.39717381      -2.44513615
Si      -2.76707045       0.76683768       7.29464349
Si       4.17338487      -2.74850315       3.55429428
Si      -2.90534267       3.39065488       4.20319666
Si       3.49877001       4.30966330      -2.60573009
Si      -0.05767132       6.34884604      -0.48420864
Si      -0.73228618      -0.08560269       6.32471811
Si       6.34644136      -0.49110905       0.16469374
Si       0.67001656       0.69602030       0.72412441
Si       2.77108213       2.87862948       2.99486361
20
Lattice="8.543692522425367 -2.2313396201582116 -2.3214372983914404 -2.554879007761109 8.452582544639146 -2.321437298391119 -2.5548790077617567 -2.6540353796331058 8.354119882306701" Properties=species:S:1:pos:R:3 unique_starting_index=58 config_type=initial n_minim_iter=14 stress="-0.0014492875649937491 0.0007939861494682439 0.0008260459524549043 0.0007939861494682439 -0.0013888086866882799 0.0008581052865341015 0.0008260459524549043 0.0008581052865341015 -0.0013208557996102056" pbc="T T T"
Si       0.75847901       3.98544349       2.55668191
Si       3.95368995       2.51869269       1.01004725
Si       2.36639840       0.84915461       4.08347494
Si       1.06753610      -0.47947452       2.70119804
Si       2.67545549       1.17020639      -0.37222966
Si      -0.51975545       2.65759998       1.15456338
Si       2.57474218       6.35216034      -3.59976607
Si       6.24956883      -3.70830478       2.67000357
Si      -3.94346438       2.42641965       6.20476675
Si       7.37739888      -2.53670298       1.04124172
Si       0.85919232       7.41547030      -2.49352147
Si      -2.81563433       0.75258011       7.31101136
Si       4.20685888      -2.75865747       3.52751641
Si      -2.91676359       3.36258986       4.23517465
Si       3.47115998       4.34211004      -2.61693589
Si      -0.03722548       6.35388455      -0.52392937
Si      -0.77292438      -0.06668975       6.32818118
Si       6.35069809      -0.53161459       0.18372888
Si       0.66506524       0.69087682       0.71877325
Si       2.76886926       2.87633073       2.99247204
20
Lattice="8.547773387309038 -2.2294598248429565 -2.319481600155837 -2.5531558838886905 8.456731994331129 -2.319481600155516 -2.553155883889337 -2.6522453802996746 8.358343457891603" Properties=species:S:1:pos:R:3 unique_starting_index=58 config_type=initial n_minim_iter=15 stress="0.00011152244638507079 -0.00014887861798960802 -0.00015489008199833738 -0.00014887861798960802 0.00010018218330320848 -0.00016090145808525627 -0.00015489008199833738 -0.00016090145808525627 8.744048507079248e-05" pbc="T T T"
Si       0.76185626       4.01313928       2.54499993
Si       3.98123715       2.50684464       1.01401044
Si       2.35351055       0.85204346       4.11068686
Si       1.08795107      -0.49873159       2.70536982
Si       2.67960536       1.19079421      -0.39130661
Si      -0.53977553       2.66099038       1.17438033
Si       2.59294950       6.39143235      -3.60095522
Si       6.28811946      -3.71027195       2.68962985
Si      -3.94689729       2.44450943       6.24396098
Si       7.38835890      -2.56733157       1.02975040
Si       0.84851211       7.42603151      -2.52458072
Si      -2.84665785       0.74071061       7.32033547
Si       4.23186944      -2.74709422       3.50597853
Si      -2.90616056       3.34006264       4.25973514
Si       3.44824555       4.36626603      -2.60623381
Si      -0.00678394       6.35196579      -0.54035488
Si      -0.79040783      -0.03689201       6.32561406
Si       6.34762217      -0.54922787       0.21340173
Si       0.66629827       0.69215770       0.72010585
Si       2.77516335       2.88286909       2.99927441
20
Lattice="8.559442251151731 -2.2272627914961425 -2.317195854359442 -2.551404535942606 8.468476019164122 -2.3171958543591202 -2.5514045359432522 -2.650426061499513 8.370168720350732" Properties=species:S:1:pos:R:3 unique_starting_index=58 config_type=initial n_minim_iter=16 stress="0.002646346641605829 -0.0017220155083998083 -0.0017915475499527614 -0.0017220155083998083 0.0025151786527954595 -0.001861078574533786 -0.0017915475499527614 -0.001861078574533786 0.0023678008610428006" pbc="T T T"
Si       0.78895713       4.04943795       2.51220104
Si       4.01647811       2.47294534       1.04115321
Si       2.31829460       0.87782277       4.14565947
Si       1.13833857      -0.51689651       2.69462380
Si       2.66767604       1.24076391      -0.40988246
Si      -0.55984494       2.64828806       1.22357597
Si       2.63173261       6.47133788      -3.60836113
Si       6.36649110      -3.71932567       2.73110017
Si      -3.95892711       2.48286248       6.32351094
Si       7.41556029      -2.62954148       1.00467684
Si       0.82490057       7.45235336      -2.58773392
Si      -2.90985792       0.71467493       7.34413814
Si       4.28198311      -2.73840076       3.44534431
Si      -2.89938063       3.27748157       4.30770497
Si       3.38545178       4.41402449      -2.59994607
Si       0.07118139       6.36333286      -0.57192796
Si      -0.82534994       0.03979905       6.33572308
Si       6.35601380      -0.58387571       0.29043270
Si       0.66604775       0.69189747       0.71983510
Si       2.79058542       2.89888970       3.01594191
20
Lattice="8.533623790926162 -2.2063693085036333 -2.2954587282519046 -2.5295435904400154 8.443471427951499 -2.295458728251583 -2.52954359044066 -2.6277166797167184 8.346043708181439" Properties=species:S:1:pos:R:3 unique_starting_index=58 config_type=initial n_minim_iter=17 stress="-0.002024174393263683 2.037603227871586e-05 2.119878161955708e-05 2.037603227871586e-05 -0.0020226223264195055 2.2021518925179595e-05 2.119878161955708e-05 2.2021518925179595e-05 -0.002020878454412144" pbc="T T T"
Si       0.83784325       4.02399286       2.51244327
Si       3.98919096       2.47129297       1.08900761
Si       2.31768193       0.92672099       4.12024389
Si       1.15685467      -0.47096796       2.66611864
Si       2.63669336       1.25811344      -0.36511763
Si      -0.51465435       2.61900403       1.24268298
Si       2.66236511       6.46558051      -3.55713853
Si       6.35957208      -3.66934557       2.76349413
Si      -3.90871990       2.51542937       6.31978463
Si       7.38325650      -2.60593135       0.99163212
Si       0.81217150       7.41954136      -2.56465838
Si      -2.88503548       0.70288201       7.31226478
Si       4.26668644      -2.71111024       3.43003707
Si      -2.87152772       3.26274997       4.29286355
Si       3.36967083       4.39811570      -2.57328254
Si       0.10486577       6.35465906      -0.53773729
Si      -0.79214983       0.07477230       6.32840879
Si       6.34606433      -0.55103046       0.32508918
Si       0.66810795       0.69403762       0.72206167
Si       2.80642865       2.91534782       3.03306458
20
Lattice="8.55355519261034 -2.2129433538917795 -2.3022982223510926 -2.5368714225947016 8.463138194889007 -2.3022982223507715 -2.536871422595347 -2.63532890939001 8.36542448114611" Properties=species:S:1:pos:R:3 unique_starting_index=58 config_type=initial n_minim_iter=18 stress="0.0003583654721617086 0.0005614582817757166 0.0005841290070917332 0.0005614582817757166 0.0004011324235998881 0.000606799400824272 0.0005841290070917332 0.000606799400824272 0.0004491845353988004" pbc="T T T"
Si       0.84446557       4.02554803       2.51067372
Si       3.99049297       2.46926065       1.09560908
Si       2.31560153       0.93326888       4.12172783
Si       1.16421081      -0.46671119       2.66521896
Si       2.63534677       1.26542362      -0.36089979
Si      -0.51068062       2.61780781       1.25015432
Si       2.66396368       6.49031461      -3.58099254
Si       6.38422742      -3.69328134       2.76508714
Si      -3.93357666       2.51608242       6.34355561
Si       7.41338900      -2.62417739       0.99574090
Si       0.81584866       7.44983575      -2.58272757
Si      -2.90441508       0.70582376       7.34182057
Si       4.28348517      -2.73589328       3.42831991
Si      -2.89693214       3.26040733       4.30862657
Si       3.36829673       4.41487428      -2.59811411
Si       0.11151561       6.38561472      -0.54779854
Si      -0.80367283       0.08098810       6.35894215
Si       6.37674448      -0.56139334       0.33250813
Si       0.67101310       0.69705552       0.72520143
Si       2.80879924       2.91781042       3.03562661
20
Lattice="8.608666123273599 -2.235313085649793 -2.3255712056248745 -2.561322360456349 8.517357851981073 -2.32557120562455 -2.561322360457001 -2.6607288026737583 8.4186809210085" Properties=species:S:1:pos:R:3 unique_starting_index=58 config_type=initial n_minim_iter=19 stress="0.003620460251863463 -0.0011128646673078727 -0.0011578002395557397 -0.0011128646673078727 0.003535692013994757 -0.0012027351545789125 -0.0011578002395557397 -0.0012027351545789125 0.0034404480766506273" pbc="T T T"
Si       0.85244128       4.01179675       2.51545360
Si       3.97644811       2.47374218       1.10323895
Si       2.32061433       0.94144129       4.10817643
Si       1.16540707      -0.44639704       2.66429956
Si       2.63358011       1.26655346      -0.34063792
Si      -0.49042671       2.61681125       1.25208491
Si       2.69431983       6.56742152      -3.62380623
Si       6.46012318      -3.73737775       2.79663591
Si      -3.98052956       2.54467235       6.41890828
Si       7.46655096      -2.69188991       0.97090260
Si       0.79170156       7.50211659      -2.65136977
Si      -2.97410178       0.67900509       7.39134474
Si       4.30972151      -2.81173476       3.46237021
Si      -2.97371717       3.29350791       4.33328643
Si       3.40429562       4.44250068      -2.67254905
Si       0.08172578       6.46753441      -0.56574792
Si      -0.82370012       0.05041392       6.44008756
Si       6.45973856      -0.57827427       0.30516830
Si       0.66796393       0.69388801       0.72190602
Si       2.81805747       2.92742796       3.04563249
20
Lattice="8.579614819768636 -2.199962587301204 -2.2887933146029185 -2.5248918376719036 8.489672964795407 -2.288793314602595 -2.5248918376725507 -2.6228843896605736 8.392472780094028" Properties=species:S:1:pos:R:3 unique_starting_index=58 config_type=initial n_minim_iter=20 stress="0.0035004051861039606 3.807359375587106e-05 3.9610940366183375e-05 3.807359375587106e-05 0.0035033052974540336 4.1148264489411024e-05 3.9610940366183375e-05 4.1148264489411024e-05 0.00350656380595392" pbc="T T T"
Si       0.88817595       4.03872180       2.53066566
Si       4.00199366       2.48748901       1.14054553
Si       2.33337899       0.97768801       4.13568224
Si       1.19645215      -0.42693724       2.67434063
Si       2.64165519       1.29792859      -0.32079609
Si      -0.47216252       2.62558779       1.28422049
Si       2.75335724       6.62968408      -3.56221489
Si       6.52009379      -3.67826243       2.86038887
Si      -3.92373943       2.60591544       6.48355888
Si       7.45357057      -2.70855686       0.95449728
Si       0.77647390       7.48854684      -2.66867273
Si      -2.99026265       0.66315090       7.37710104
Si       4.31347006      -2.78190770       3.45188944
Si      -2.94405438       3.28284224       4.33774893
Si       3.39250876       4.44580304      -2.64316000
Si       0.13732237       6.48380905      -0.52286278
Si      -0.78363892       0.10757658       6.45804615
Si       6.47388552      -0.53764523       0.36299671
Si       0.66161381       0.68729144       0.71504309
Si       2.86821733       2.97953455       3.09984306
20
Lattice="8.547935932909114 -2.183043620834221 -2.271191189201717 -2.506779493116374 8.458660930459184 -2.2711911892013954 -2.5067794931170186 -2.6040690942542373 8.362181432301583" Properties=species:S:1:pos:R:3 unique_starting_index=58 config_type=initial n_minim_iter=21 stress="-0.00039710139051336504 8.889936386821646e-05 9.24889681629853e-05 8.889936386821646e-05 -0.00039032981923000216 9.607851995421022e-05 9.24889681629853e-05 9.607851995421022e-05 -0.00038272141392185435" pbc="T T T"
Si       0.89278550       4.03578580       2.53797055
Si       3.99888436       2.49461037       1.14532549
Si       2.34061352       0.98257644       4.13303755
Si       1.19376342      -0.41937898       2.67447357
Si       2.64159144       1.29523549      -0.31323849
Si      -0.46450742       2.62581554       1.28182850
Si       2.76092814       6.62561015      -3.52304188
Si       6.51573467      -3.63941327       2.86934327
Si      -3.88475252       2.61497667       6.48103796
Si       7.41912946      -2.70095720       0.95045578
Si       0.77344880       7.45396555      -2.66123891
Si      -2.98135774       0.66046275       7.34284093
Si       4.30160112      -2.76373877       3.44348040
Si      -2.92544691       3.27488166       4.32625612
Si       3.38384579       4.43359556      -2.62533799
Si       0.15053115       6.47024026      -0.50645707
Si      -0.76722418       0.12142010       6.44513705
Si       6.45982385      -0.52175414       0.37631866
Si       0.65151141       0.67679696       0.70412486
Si       2.88286553       2.99475126       3.11567419
