14
Lattice="5.804180948612109 -0.11140983224693699 0.669061588855879 2.720899442886742 7.939786509821812 -1.2170798336897488 1.3739592366970805 0.8207507218083158 6.723728471748056" Properties=species:S:1:pos:R:3 unique_starting_index=86 config_type=initial n_minim_iter=1 energy=-2278.0291266640024 free_energy=-2278.0291266640024 pbc="T T T"
Si       6.81160179       4.61513117       4.85332808
Si       6.90631525       1.55680554       3.76573733
Si       4.44904040       4.21340914       2.10694792
Si       7.20311773       3.18907014       2.04815782
Si       4.14222098       5.39181902       5.89923633
Si       2.52971463       2.02090877      -0.61228472
Si       2.17324898       5.61024621       1.24197629
Si       7.50057155       2.01455530       6.09758309
Si       4.64195598       2.77581886       0.23883253
Si       5.59877107       6.50332393       4.35595676
Si       3.02828168       0.58096350       6.67941736
Si       5.61608958       6.24297263       1.96112704
Si       5.12335720       3.05823284       4.06393357
Si       3.82087303       7.41466237       1.03140329
14
Lattice="5.791964163538351 -0.13037815726344126 0.6621807726456617 2.6869426283302746 7.918351627981873 -1.1883338292526693 1.3675937413926482 0.8298687797192128 6.662962700994537" Properties=species:S:1:pos:R:3 unique_starting_index=86 config_type=initial n_minim_iter=2 stress="-0.002442229512544111 0.0013244680415871186 0.000810524933878085 0.0013244680415871186 -0.00419621644991394 -0.000426466118945296 0.000810524933878085 -0.000426466118945296 -0.0029393705852665485" pbc="T T T"
Si       6.78079507       4.59722779       4.81802914
Si       6.88559431       1.53921823       3.73459512
Si       4.42468743       4.19582489       2.09716005
Si       7.17627071       3.16333917       2.03620847
Si       4.11295612       5.38479217       5.85417291
Si       2.51679320       2.00954335      -0.60173678
Si       2.14828255       5.59907478       1.24260953
Si       7.47647282       1.99760668       6.04432538
Si       4.62347881       2.75727167       0.24349543
Si       5.56202372       6.48610759       4.32890395
Si       3.01861110       0.58582121       6.61944210
Si       5.58326404       6.21892881       1.95815282
Si       5.10073159       3.04519554       4.03138255
Si       3.78583564       7.39531963       1.03573792
14
Lattice="5.807894721608404 -0.16164777667617752 0.6510187101466606 2.652396865391183 7.955824936062207 -1.1683936329200448 1.356116168137768 0.84620348861296 6.647434170140779" Properties=species:S:1:pos:R:3 unique_starting_index=86 config_type=initial n_minim_iter=3 stress="0.002083425843159175 -0.0011159509569911498 0.000807484323232252 -0.0011159509569911498 0.0033905711713599204 0.0012392966722122557 0.000807484323232252 0.0012392966722122557 -0.0016946593994706563" pbc="T T T"
Si       6.76840249       4.60744777       4.80797579
Si       6.89005040       1.52214121       3.72098864
Si       4.41084740       4.20284357       2.09794835
Si       7.17612389       3.14908021       2.02939881
Si       4.08276559       5.41738652       5.84413702
Si       2.51291213       2.01087319      -0.59741568
Si       2.12035237       5.63037284       1.25148932
Si       7.47565346       1.98305383       6.02300432
Si       4.62454177       2.75224202       0.24579128
Si       5.53214665       6.51374680       4.32644728
Si       3.01223863       0.59424343       6.60224544
Si       5.56501500       6.23429463       1.96447307
Si       5.09104201       3.04762150       4.01932183
Si       3.75276463       7.42993453       1.04335879
14
Lattice="5.737013025130023 -0.22329875171928262 0.568897618367251 2.558332401321838 7.868232595723009 -1.2374472179985012 1.2305650081705914 0.8110688732915875 6.6842898838524665" Properties=species:S:1:pos:R:3 unique_starting_index=86 config_type=initial n_minim_iter=4 stress="-0.0017779044616706517 -0.0031780269157584335 -0.004126536452724799 -0.0031780269157584335 -0.0021032180893895344 0.0007525372608852633 -0.004126536452724799 0.0007525372608852633 0.0016890784661298616" pbc="T T T"
Si       6.58406970       4.51242400       4.73159879
Si       6.73531868       1.42900419       3.66029831
Si       4.28868159       4.09348994       2.04735799
Si       7.03988386       3.03099231       1.93660378
Si       3.87232223       5.33156047       5.79104111
Si       2.46758603       1.99188882      -0.63425799
Si       2.01136460       5.56333171       1.21720418
Si       7.27256259       1.85250759       5.95856056
Si       4.57419357       2.68170068       0.19144803
Si       5.32355006       6.40383493       4.26317175
Si       2.86482609       0.56549127       6.61920758
Si       5.43494739       6.10394613       1.90009764
Si       4.94334544       2.94576207       3.95213021
Si       3.61478523       7.33650058       0.95647550
14
Lattice="5.7267565715021815 -0.19799879789368444 0.6004167331955861 2.5849448839247167 7.900631040727895 -1.2617289663130937 1.268640773662636 0.7841759456252038 6.676225165475836" Properties=species:S:1:pos:R:3 unique_starting_index=86 config_type=initial n_minim_iter=5 stress="-0.0003386782493874109 0.0014667922507692003 -0.00044753550687189183 0.0014667922507692003 0.000188166373435849 -0.001852757146193725 -0.00044753550687189183 -0.001852757146193725 -0.0019126893239849259" pbc="T T T"
Si       6.62889813       4.55299502       4.73429819
Si       6.73972362       1.44520970       3.69674892
Si       4.30975415       4.08564660       2.05302531
Si       7.05796038       3.04740407       1.96288591
Si       3.89988364       5.34203685       5.74569653
Si       2.46540640       2.03544419      -0.62264829
Si       2.03440931       5.57655847       1.19490417
Si       7.28575617       1.84022864       5.98121563
Si       4.61495674       2.70770311       0.21730715
Si       5.35422236       6.42787935       4.25055014
Si       2.89105390       0.56611052       6.62673224
Si       5.48444054       6.11790473       1.91134665
Si       4.96826806       2.93662420       3.94471388
Si       3.64918997       7.36655338       0.91682383
14
Lattice="5.71937959931408 -0.2164722259327694 0.6268157612419771 2.544099875915295 7.85300516762496 -1.212572015095122 1.2899681421648168 0.8137693709094896 6.723621774634517" Properties=species:S:1:pos:R:3 unique_starting_index=86 config_type=initial n_minim_iter=6 stress="-0.00011463729781152234 0.001004711157852056 0.0009904784606593296 0.001004711157852056 -0.0006320602546076177 0.0015610837112603412 0.0009904784606593296 0.0015610837112603412 0.0009250124959896078" pbc="T T T"
Si       6.62208989       4.54802616       4.81787831
Si       6.73334268       1.43071625       3.75796926
Si       4.29245881       4.05555969       2.10960625
Si       7.04721329       3.01191693       2.02595927
Si       3.87963878       5.34349516       5.81030128
Si       2.45161627       2.03000310      -0.60261769
Si       2.01354448       5.55138190       1.23771677
Si       7.28129576       1.82859193       6.05959094
Si       4.61673732       2.67928383       0.25226022
Si       5.33052665       6.41190522       4.33474454
Si       2.90810118       0.59776656       6.67843751
Si       5.45886989       6.07998218       1.98519102
Si       4.96095287       2.91870856       4.00514971
Si       3.62176516       7.32757950       0.97553977
14
Lattice="5.69838687353618 -0.3160090715213919 0.6486774237419525 2.393128363694466 7.776483098327371 -1.2219689439597499 1.2901474408987308 0.7789392337438498 6.770751506384822" Properties=species:S:1:pos:R:3 unique_starting_index=86 config_type=initial n_minim_iter=7 stress="0.0029701323008071443 -0.0029964474836264234 0.004129094053810367 -0.0029964474836264234 -0.0010514514051519703 0.0009619091661296624 0.004129094053810367 0.0009619091661296624 0.0046775699671808115" pbc="T T T"
Si       6.54104361       4.44707314       4.87797654
Si       6.67909158       1.28667682       3.81672608
Si       4.20250691       3.92814077       2.14176487
Si       6.99504230       2.84963551       2.07438961
Si       3.72599539       5.26222091       5.80528435
Si       2.41084288       2.03737765      -0.59875961
Si       1.91414962       5.47869503       1.22428283
Si       7.20607752       1.65399940       6.13145336
Si       4.61934894       2.58394267       0.25356533
Si       5.19129913       6.31059889       4.37215102
Si       2.89941145       0.56000877       6.72286838
Si       5.32857096       5.95013133       2.02329613
Si       4.89100083       2.78347399       4.05313729
Si       3.50321023       7.22305836       0.97723771
14
Lattice="5.591761142544024 -0.4120022816193552 0.5857608184028585 2.2230366335097163 7.752567971322316 -1.2087118019374512 1.1771505684977108 0.7992269403772572 6.785390620468731" Properties=species:S:1:pos:R:3 unique_starting_index=86 config_type=initial n_minim_iter=8 stress="0.001761288312217826 -0.001268824309185099 0.0024180940412063204 -0.001268824309185099 0.0020395568014615396 0.007740710709116084 0.0024180940412063204 0.007740710709116084 0.0068759397303422036" pbc="T T T"
Si       6.30909088       4.45696827       4.87785748
Si       6.47153978       1.16718156       3.79425736
Si       4.01766405       3.81385741       2.14513654
Si       6.84775879       2.70343725       2.05527518
Si       3.37606807       5.28266448       5.72251668
Si       2.35098520       2.11161501      -0.61231566
Si       1.76814052       5.44647274       1.19332169
Si       6.92428702       1.50825257       6.10732338
Si       4.61540539       2.50831309       0.18922900
Si       4.90620320       6.31224544       4.36518752
Si       2.75186852       0.59861918       6.70278706
Si       5.08570449       5.88275965       2.03354542
Si       4.69145581       2.67292807       4.04995475
Si       3.34537345       7.17074161       0.97274661
14
Lattice="5.522356856455323 -0.5309313185283209 0.5280644483795587 2.0502409616452666 7.7207777523041825 -1.30361570194224 1.0787836010632654 0.7149456982907314 6.756462701610229" Properties=species:S:1:pos:R:3 unique_starting_index=86 config_type=initial n_minim_iter=9 stress="0.0014461666580776213 -0.0019281703064778495 0.0017722049321669665 -0.0019281703064778495 0.0014687627443407925 0.004232140423005309 0.0017722049321669665 0.004232140423005309 0.0037392881054741523" pbc="T T T"
Si       6.11011386       4.36006089       4.79501682
Si       6.31053790       0.96921746       3.73508579
Si       3.85323474       3.65346738       2.07768044
Si       6.74649698       2.50649551       1.98773104
Si       3.04473240       5.20008602       5.54418912
Si       2.29970658       2.17269952      -0.65780562
Si       1.62168177       5.37893092       1.07299712
Si       6.69822378       1.25832852       6.03347505
Si       4.61814219       2.41361225       0.08325661
Si       4.65431383       6.21376277       4.24709580
Si       2.63495111       0.52061147       6.64588313
Si       4.86146834       5.75984369       1.94470786
Si       4.52453566       2.49090013       3.99544821
Si       3.19584710       7.07665007       0.86495819
14
Lattice="5.474785995319911 -0.5979404928185317 0.47822249378280757 1.9550030358735149 7.706793744728193 -1.37773777415179 1.0022915029000448 0.6563303804267311 6.729502006835191" Properties=species:S:1:pos:R:3 unique_starting_index=86 config_type=initial n_minim_iter=10 stress="-0.0016815681291812222 -0.002103840526736333 -0.0010569364254617156 -0.002103840526736333 0.0020744132708294303 0.0013445346225040486 -0.0010569364254617156 0.0013445346225040486 0.0005012357013934781" pbc="T T T"
Si       5.98095980       4.30439316       4.72371030
Si       6.19978157       0.84651282       3.67718873
Si       3.74629391       3.55219937       2.01650180
Si       6.69102660       2.39289257       1.92676003
Si       2.81447202       5.15383687       5.40902966
Si       2.27270260       2.21407667      -0.69894251
Si       1.52672118       5.34079551       0.97905419
Si       6.54143924       1.10556417       5.96436006
Si       4.61587567       2.36887523       0.00094969
Si       4.50066979       6.14963482       4.15048693
Si       2.55166458       0.46514982       6.60244963
Si       4.72189240       5.68779114       1.86595515
Si       4.41442448       2.38079364       3.94667634
Si       3.11245063       7.02397700       0.78169190
14
Lattice="5.533687158609625 -0.576159782231988 0.44387835147529126 2.0307984175200766 7.685443150168514 -1.4783426810059035 0.9866447524600572 0.5758898285461985 6.654379395407627" Properties=species:S:1:pos:R:3 unique_starting_index=86 config_type=initial n_minim_iter=11 stress="0.0025499216575387714 0.0035716783094064354 -0.003320975794681903 0.0035716783094064354 -0.0011186823817261275 -0.007964053489883377 -0.003320975794681903 -0.007964053489883377 -0.007815282553404433" pbc="T T T"
Si       6.06782523       4.25087177       4.61654609
Si       6.25902810       0.80357651       3.58483901
Si       3.78459929       3.50798939       1.91281103
Si       6.82741051       2.39734596       1.84910698
Si       2.77977279       5.07633802       5.25944175
Si       2.33577884       2.22196390      -0.75501342
Si       1.54386619       5.30420544       0.85793312
Si       6.58732074       1.05736054       5.85378993
Si       4.67014515       2.41036046      -0.07705583
Si       4.60348309       6.06203512       4.00739178
Si       2.58094034       0.37593296       6.53171026
Si       4.78173841       5.65700696       1.73237749
Si       4.46374141       2.34453322       3.87482139
Si       3.21121707       6.98573236       0.68652815
14
Lattice="5.475470949446556 -0.6131219522287178 0.4518642305095915 1.954501781469577 7.663185221115404 -1.510076550066154 0.9731910180395977 0.542179113730512 6.680839829616715" Properties=species:S:1:pos:R:3 unique_starting_index=86 config_type=initial n_minim_iter=12 stress="-0.007751301681925191 0.0008831106271111652 -0.004519843981664066 0.0008831106271111652 0.0022412343360511174 -0.009214214387582218 -0.004519843981664066 -0.009214214387582218 -0.007998238343596042" pbc="T T T"
Si       5.98917837       4.19362182       4.64527424
Si       6.17409685       0.73811454       3.60509101
Si       3.70328224       3.43828312       1.89931839
Si       6.78620237       2.35032335       1.87245610
Si       2.64824336       5.04026923       5.23197987
Si       2.30151127       2.20752827      -0.77230909
Si       1.44886464       5.29473048       0.81714582
Si       6.50209644       0.97852319       5.88074509
Si       4.58939007       2.41196891      -0.07156063
Si       4.53271040       5.97843460       4.01087081
Si       2.57023115       0.33092069       6.58103709
Si       4.69985068       5.59210495       1.72399711
Si       4.40931196       2.29629059       3.88420064
Si       3.13596381       6.95732775       0.66774240
14
Lattice="5.542679522748761 -0.586833145203901 0.4881932480903119 2.0070889266625116 7.573982335693075 -1.4619246517657298 1.0311258448980825 0.5686799473558904 6.718015902496655" Properties=species:S:1:pos:R:3 unique_starting_index=86 config_type=initial n_minim_iter=13 stress="-0.004294179509297802 0.0026911460785810815 -0.0019091267081054763 0.0026911460785810815 -0.0023371664868125273 -0.007570206983373289 -0.0019091267081054763 -0.007570206983373289 -0.006365953326903899" pbc="T T T"
Si       6.11995116       4.15596080       4.73192179
Si       6.27357686       0.77618589       3.65800438
Si       3.76952365       3.41623678       1.93174274
Si       6.91985914       2.38611984       1.94437612
Si       2.73760540       5.00476005       5.30760636
Si       2.33210330       2.13699809      -0.75552506
Si       1.45396466       5.26878268       0.85080304
Si       6.64585709       1.03121838       5.94794222
Si       4.58709286       2.43249913      -0.00119204
Si       4.67705402       5.89493999       4.09671058
Si       2.66767114       0.34489296       6.65404956
Si       4.81520656       5.53740552       1.78312539
Si       4.52164698       2.32929969       3.92378169
Si       3.19946810       6.90481866       0.73290370
14
Lattice="5.619242264384868 -0.6271398431818166 0.513475678499074 1.9705316909745667 7.437634748246851 -1.3804425311611055 1.067017299897489 0.6138552825256147 6.776032996299492" Properties=species:S:1:pos:R:3 unique_starting_index=86 config_type=initial n_minim_iter=14 stress="-0.001188773093481815 -0.0007857557940006163 -0.0025495280845102435 -0.0007857557940006163 -0.0023591400937486534 -0.0007119695869836385 -0.0025495280845102435 -0.0007119695869836385 -0.0008249238424945481" pbc="T T T"
Si       6.20698155       4.09052496       4.85982493
Si       6.34708219       0.74164149       3.73363763
Si       3.78174171       3.31579363       1.99711812
Si       7.06218990       2.31711563       2.04613064
Si       2.69178235       4.97005280       5.37106922
Si       2.34025802       2.08064843      -0.73660391
Si       1.38846658       5.21170113       0.88171388
Si       6.74343233       1.00106052       6.04615025
Si       4.62306504       2.37776152       0.05673277
Si       4.72640090       5.78548430       4.22042448
Si       2.74402530       0.38099898       6.73265578
Si       4.84740777       5.42050654       1.88616474
Si       4.59699635       2.29174990       3.98713605
Si       3.20177084       6.78610173       0.82837548
14
Lattice="5.6372743620214685 -0.6170722269454507 0.5735558511886739 1.9724997014466772 7.445077780288499 -1.312762036234338 1.1385423307195381 0.6537958778903756 6.8153517859590504" Properties=species:S:1:pos:R:3 unique_starting_index=86 config_type=initial n_minim_iter=15 stress="-0.00036664122579743426 -0.0011968011808377017 0.001447748503357782 -0.0011968011808377017 0.0001755413964132492 0.0023347730957656216 0.001447748503357782 0.0023347730957656216 0.0029130483911135514" pbc="T T T"
Si       6.27945621       4.10962592       4.96803853
Si       6.39833491       0.78993464       3.82181210
Si       3.81244895       3.34122509       2.06913637
Si       7.11876781       2.36219631       2.15263961
Si       2.78211946       5.00216767       5.46150427
Si       2.33217517       2.04918293      -0.70620715
Si       1.38775407       5.24783213       0.92361039
Si       6.83908079       1.06241869       6.15567794
Si       4.60136225       2.38539447       0.13272112
Si       4.79587567       5.80790807       4.33407160
Si       2.82644196       0.41656591       6.79028580
Si       4.88374097       5.45004098       1.98153437
Si       4.66802511       2.34090816       4.05198457
Si       3.21623766       6.80345161       0.91770846
14
Lattice="5.712955205116603 -0.6085502496365077 0.6267158628026993 2.0004168509276834 7.426770655781969 -1.2457922891825377 1.2179944572900911 0.6887747035931214 6.832021046321282" Properties=species:S:1:pos:R:3 unique_starting_index=86 config_type=initial n_minim_iter=16 stress="0.0031836228773307242 -0.0017930774323810436 0.003399844723300778 -0.0017930774323810436 0.003184370203760673 0.005222531985043147 0.003399844723300778 0.005222531985043147 0.006728250566402084" pbc="T T T"
Si       6.43209633       4.10655134       5.05421224
Si       6.50925704       0.83933882       3.90437133
Si       3.87765593       3.33867923       2.14743257
Si       7.29556904       2.40382284       2.26749835
Si       2.88895531       5.01459049       5.50565969
Si       2.34002835       2.00537450      -0.68854017
Si       1.38323174       5.28189248       0.91749492
Si       7.00727966       1.11710442       6.26307818
Si       4.63033472       2.35901557       0.19660260
Si       4.90832990       5.80823010       4.43892856
Si       2.93768972       0.45536294       6.81309763
Si       4.94980121       5.46441952       2.07622534
Si       4.80058660       2.37967494       4.08773694
Si       3.26558279       6.78355212       1.00249591
14
Lattice="5.757967993873891 -0.581704845018239 0.6350585502939761 2.0574886426297434 7.446691609932626 -1.251124054467896 1.2475950838787682 0.6784951040177761 6.782728792199468" Properties=species:S:1:pos:R:3 unique_starting_index=86 config_type=initial n_minim_iter=17 stress="0.0020476274808682144 -0.00018140018524196526 0.00221968945402848 -0.00018140018524196526 0.002714017096075294 0.00331326500876248 0.00221968945402848 0.00331326500876248 0.004175411619171067" pbc="T T T"
Si       6.53786639       4.10556224       5.00968563
Si       6.58070799       0.88493804       3.90165537
Si       3.93485488       3.35496624       2.15843965
Si       7.43456818       2.46942106       2.28889806
Si       2.97969927       5.00760206       5.44352022
Si       2.35143964       1.98540811      -0.70549686
Si       1.39799496       5.32490191       0.83941745
Si       7.10941846       1.15844912       6.26432235
Si       4.64853575       2.33498127       0.19235495
Si       4.98147842       5.82215855       4.42338102
Si       2.98375151       0.45644334       6.74955879
Si       4.98371914       5.50530632       2.07171961
Si       4.88968801       2.41422549       4.04100043
Si       3.31109824       6.78633591       0.99454899
14
Lattice="5.766689718773639 -0.5722272828641767 0.5919616576425434 2.092762399441693 7.464582893951095 -1.3278118925967972 1.2095824527594374 0.6217721147794024 6.699482191298526" Properties=species:S:1:pos:R:3 unique_starting_index=86 config_type=initial n_minim_iter=18 stress="0.0002442880937568043 0.0006563614595505316 -0.0012954376231741843 0.0006563614595505316 -0.0014874236159693381 -0.0029305757735081832 -0.0012954376231741843 -0.0029305757735081832 -0.0044223305180880875" pbc="T T T"
Si       6.54211869       4.08080319       4.86477686
Si       6.59821445       0.86277514       3.81857916
Si       3.95985090       3.35336443       2.08970211
Si       7.47302400       2.49116984       2.20928962
Si       2.97504169       4.96058869       5.30168686
Si       2.36961563       1.99817276      -0.75082131
Si       1.40608715       5.32995124       0.72742621
Si       7.09973402       1.12162600       6.15528760
Si       4.65222831       2.30509449       0.12095581
Si       4.97115199       5.80498292       4.29604375
Si       2.94281761       0.40450512       6.64594393
Si       4.96142593       5.50845078       1.97228666
Si       4.88956858       2.39534632       3.94861292
Si       3.30888318       6.78475679       0.89347361
14
Lattice="5.718863802884173 -0.5582290883819485 0.6024975010701649 2.086864071245823 7.458691936810975 -1.3251681018429693 1.2065549041578179 0.6315006166423605 6.752204707470821" Properties=species:S:1:pos:R:3 unique_starting_index=86 config_type=initial n_minim_iter=19 stress="-0.005577908772413056 -0.0003618520213025387 -0.0013018205455284683 -0.0003618520213025387 -0.0029914428687023973 -0.0030846038029919303 -0.0013018205455284683 -0.0030846038029919303 -0.002121336614893726" pbc="T T T"
Si       6.50223972       4.11035556       4.92019504
Si       6.58513313       0.86150950       3.86925315
Si       3.96778044       3.36529081       2.10109290
Si       7.43771719       2.54393607       2.27058221
Si       2.93725818       4.95787697       5.32645173
Si       2.36932347       2.01221703      -0.76672759
Si       1.37767269       5.32803221       0.71149100
Si       7.05734473       1.12405157       6.20515637
Si       4.58244546       2.30691000       0.12537100
Si       4.95406333       5.80468887       4.34533904
Si       2.92292225       0.40736138       6.72056508
Si       4.91396614       5.50543121       2.00378974
Si       4.86897018       2.40183945       4.01655914
Si       3.26198759       6.80524754       0.90328858
14
Lattice="5.740877584335116 -0.5356514205630567 0.604891630943839 2.123610842915432 7.469841719115873 -1.2889941761529433 1.2169294407202573 0.6680916731469051 6.765260412447669" Properties=species:S:1:pos:R:3 unique_starting_index=86 config_type=initial n_minim_iter=20 stress="-0.0009575808555829653 2.9081121229713363e-05 -0.0014199159287243053 2.9081121229713363e-05 -0.001644158044234798 -0.0001938272460572527 -0.0014199159287243053 -0.0001938272460572527 -0.0003497085410868324" pbc="T T T"
Si       6.54722438       4.16243742       4.94572586
Si       6.64517792       0.90429054       3.89501730
Si       4.03120158       3.40269949       2.12430787
Si       7.48108490       2.61501622       2.31483772
Si       2.98101726       4.98844134       5.35001480
Si       2.38699066       2.01862665      -0.76399486
Si       1.39066471       5.34743655       0.72023618
Si       7.10669884       1.17238914       6.22297846
Si       4.58188881       2.30481532       0.13763599
Si       4.99528912       5.84955485       4.38533381
Si       2.93233662       0.44381799       6.74168770
Si       4.94209019       5.53815553       2.04181436
Si       4.91509782       2.43851744       4.04473067
Si       3.26907408       6.83881872       0.92936195
14
Lattice="5.766183781822751 -0.5196371665141729 0.6502234405170794 2.1435089876183566 7.48218253151861 -1.2490645171518504 1.2754613141231972 0.6901026007395761 6.788329771940077" Properties=species:S:1:pos:R:3 unique_starting_index=86 config_type=initial n_minim_iter=21 stress="0.001823586316267976 -0.0004334805182845473 0.0013907813756657964 -0.0004334805182845473 0.0018745524230265856 0.000689981029775165 0.0013907813756657964 0.000689981029775165 0.0022372198320696887" pbc="T T T"
Si       6.63134790       4.19644284       5.02051260
Si       6.73310293       0.94070131       3.97424451
Si       4.10735724       3.41787707       2.17645056
Si       7.56905867       2.68989595       2.43768188
Si       3.03756262       5.00614979       5.37177580
Si       2.39089272       2.02507963      -0.75320672
Si       1.38048905       5.37475706       0.70469365
Si       7.19784753       1.20110331       6.30235881
Si       4.57508158       2.29082800       0.17566490
Si       5.06095042       5.87938824       4.45837752
Si       2.99646068       0.46333595       6.78652267
Si       4.96741523       5.56845121       2.10746633
Si       5.00357008       2.45994839       4.10171642
Si       3.27232651       6.85962458       0.97235450
