16
Lattice="10.057830303944884 1.7165863641726786e-14 4.2535518350665686e-29 -5.028915151972457 8.710336550169222 6.987329573834058e-29 -1.9841967680099602e-29 -4.9094797033292687e-29 4.690541911548654" Properties=species:S:1:pos:R:3 unique_starting_index=120 config_type=initial n_minim_iter=5 energy=-2601.769875390113 free_energy=-2601.769875390113 pbc="T T T"
Si      -1.16592074       4.05173215      -0.07768303
Si       2.10297254       5.67475349      -0.07768303
Si      -0.93705181       7.69418745      -0.07768303
Si       3.88033477       0.97166561       1.24148650
Si       7.27617581       2.87463568       1.24148650
Si       3.93023486       4.86403525       1.24148650
Si       6.33088550       0.97217752       0.12699407
Si       6.05045712       4.99661890       0.12699407
Si       2.70540283       2.74154011       0.12699407
Si       5.81511285       4.02644557       2.70325456
Si       3.66326972       3.02281266       2.70325456
Si       5.60836288       1.66107831       2.70325456
Si       1.18629140       7.52409224       1.07989694
Si      -2.08028558       5.97564891       1.07989694
Si       0.89399417       3.92093193       1.07989694
Si       5.02891515       2.90344551       4.93428343
