22
Lattice="5.239336160288443 -1.7353486237083762 1.561558564519967 -4.34231206158274 11.211139484059114 -3.8882306928167525 1.0695058254652225 -5.213799478463853 10.101027553106546" Properties=species:S:1:pos:R:3 unique_starting_index=18 config_type=initial n_minim_iter=1 energy=-3579.9580337641305 free_energy=-3579.9580337641305 pbc="T T T"
Si      -0.06386398       8.83193900      -0.69855391
Si       2.08443025      -0.81497708       6.07805490
Si       0.71000736      -4.83658604       9.67149240
Si       4.86912802      -3.53181099       9.84431299
Si      -1.11053493       0.28940294       7.57285183
Si       4.00704682       1.85161893       2.16112140
Si       2.61117743      -0.31098665       1.69153493
Si       1.98681606       0.11188681       8.27982560
Si       3.03610233      -5.07188601       9.52828188
Si      -0.06289783       0.58487087       5.47943893
Si       4.11834207      -0.76079136       4.95375103
Si      -0.46807529       4.31862923       4.31239434
Si       0.14607106      -1.76769446       5.05514885
Si      -2.29272723       7.96793463      -2.28628450
Si       2.21631129       1.62033580       5.32415689
Si      -0.80328833       6.33291706      -0.49887083
Si       0.89133842      -1.51372065       2.78634588
Si       5.69129486      -5.15363386       8.27701540
Si       1.92069886       1.57167866       3.00944067
Si       0.45925644       3.08238814       6.08859092
Si      -0.04461407       2.82168208       2.45147714
Si       2.25448107      -2.44343490       7.93417425
22
Lattice="5.2801987317088015 -1.7305677630160574 1.55737350309955 -4.351204650101721 11.260515012545065 -3.8724078090990526 1.0622866942124756 -5.228718250218272 10.09362281888681" Properties=species:S:1:pos:R:3 unique_starting_index=18 config_type=initial n_minim_iter=2 stress="0.0026937256427295077 -0.0006130515061319287 0.0002126605109409787 -0.0006130515061319287 0.0035869099261583094 0.0003213339439210541 0.0002126605109409787 0.0003213339439210541 0.004400471053120895" pbc="T T T"
Si      -0.04237580       8.88026393      -0.68650205
Si       2.09938604      -0.80552219       6.07486793
Si       0.70022790      -4.84981295       9.66675554
Si       4.90012590      -3.52847827       9.83886451
Si      -1.12235958       0.29901947       7.57422480
Si       4.04608276       1.87679001       2.15936401
Si       2.63376487      -0.30351931       1.68961066
Si       2.00197965       0.12807200       8.27898095
Si       3.04658698      -5.08165350       9.52039178
Si      -0.06499975       0.59370442       5.47963776
Si       4.15014857      -0.74947465       4.95076187
Si      -0.46316411       4.34714376       4.31737366
Si       0.14090701      -1.77087714       5.05147297
Si      -2.29158470       8.00457048      -2.27553539
Si       2.23847785       1.64193063       5.32561835
Si      -0.79562646       6.36620829      -0.49075850
Si       0.89484310      -1.51802509       2.78452239
Si       5.72459685      -5.15987875       8.26755500
Si       1.93910002       1.59111406       3.01011263
Si       0.46706366       3.10892888       6.09148302
Si      -0.03809068       2.84026835       2.45595406
Si       2.26471254      -2.44176432       7.93040865
22
Lattice="5.293719167025816 -1.6980710641764898 1.5303459565994793 -4.308058004920713 11.210990348832949 -3.809200397671648 1.0284525830449962 -5.2038071440152 9.960755984574066" Properties=species:S:1:pos:R:3 unique_starting_index=18 config_type=initial n_minim_iter=3 stress="0.0029534986234555274 0.0019394300385309191 -0.0008454331893351842 0.0019394300385309191 -0.0004235884026223198 0.000500728843593394 -0.0008454331893351842 0.000500728843593394 -0.007718863248596532" pbc="T T T"
Si       0.00502169       8.85404534      -0.66652057
Si       2.10165828      -0.78233006       5.99095257
Si       0.66489791      -4.82513873       9.54727003
Si       4.89613279      -3.48953533       9.71044238
Si      -1.13471799       0.30325227       7.48338354
Si       4.07235172       1.90270319       2.12040923
Si       2.64667364      -0.28504213       1.66391657
Si       2.00506021       0.14608295       8.17330275
Si       3.02345021      -5.04599322       9.39248486
Si      -0.07151502       0.59187984       5.41008251
Si       4.15811221      -0.72404683       4.88199037
Si      -0.44741495       4.33690489       4.26574173
Si       0.12653019      -1.76003896       4.98222576
Si      -2.25500356       7.97008119      -2.23832828
Si       2.25376028       1.65473612       5.25950175
Si      -0.76938499       6.34553499      -0.47935864
Si       0.88996806      -1.51239344       2.74821077
Si       5.71195013      -5.11495693       8.15118616
Si       1.94975862       1.60723311       2.96904628
Si       0.47320407       3.10973091       6.01554117
Si      -0.02343286       2.83310258       2.43157199
Si       2.25136626      -2.41638363       7.82773491
22
Lattice="5.271280675527432 -1.6731401977110958 1.5481198738742874 -4.257026889425239 11.156360518732653 -3.844000057081362 1.019542834805615 -5.185075467011373 10.027829580524994" Properties=species:S:1:pos:R:3 unique_starting_index=18 config_type=initial n_minim_iter=4 stress="0.0009418477529816144 0.0033599299382781763 0.000754924970459221 0.0033599299382781763 -0.002251069828856107 -0.000604506634933388 0.000754924970459221 -0.000604506634933388 -0.0025001355017473786" pbc="T T T"
Si       0.03796020       8.79613270      -0.65961327
Si       2.11308901      -0.75385751       6.01394672
Si       0.64982889      -4.79932596       9.63663642
Si       4.89042481      -3.47153251       9.79406114
Si      -1.12090248       0.31113573       7.54141749
Si       4.06729323       1.93616861       2.10886114
Si       2.65373155      -0.26547648       1.67657167
Si       2.02021232       0.15374333       8.23275737
Si       3.00709645      -5.01442003       9.45595263
Si      -0.07145379       0.57026766       5.44065009
Si       4.14141454      -0.71408980       4.91465418
Si      -0.42434916       4.31179829       4.28384343
Si       0.12728011      -1.74662075       5.00116497
Si      -2.21126112       7.91992126      -2.26201628
Si       2.26768716       1.65499829       5.30607469
Si      -0.75833887       6.30982913      -0.48888436
Si       0.89470907      -1.52101590       2.76952849
Si       5.67453565      -5.09087400       8.20901102
Si       1.94382936       1.63251505       2.97877093
Si       0.47312971       3.09622579       6.05105962
Si      -0.00013387       2.81022820       2.46003611
Si       2.23816651      -2.39581549       7.88968593
22
Lattice="5.262449620759706 -1.740749788202227 1.5059370568859787 -4.352897396617286 11.2633781343167 -3.7592169052594646 1.0193758344339878 -5.1864395204088325 9.973701639015497" Properties=species:S:1:pos:R:3 unique_starting_index=18 config_type=initial n_minim_iter=5 stress="-0.0009874812924870655 -0.002061820085818098 -0.00292658551765173 -0.002061820085818098 0.00042666473969129427 0.0024876789167628203 -0.00292658551765173 0.0024876789167628203 -0.003422380397203776" pbc="T T T"
Si      -0.06252968       8.81985453      -0.60200161
Si       2.09094491      -0.73539894       5.96540207
Si       0.63693321      -4.78814471       9.61591313
Si       4.86780070      -3.51861831       9.73706888
Si      -1.16702269       0.37538947       7.54326481
Si       4.01593959       1.93939794       2.06285251
Si       2.65096345      -0.28045416       1.65478811
Si       1.97413788       0.17063309       8.20480416
Si       2.99999578      -5.03355239       9.38936019
Si      -0.12176615       0.58221131       5.42685750
Si       4.10091848      -0.75446712       4.86879115
Si      -0.50113665       4.35833500       4.28735059
Si       0.12096453      -1.73101494       4.96662298
Si      -2.27485655       7.97343143      -2.21118495
Si       2.21594823       1.66262638       5.29678753
Si      -0.84460191       6.34573179      -0.45689822
Si       0.90738904      -1.54760097       2.75121421
Si       5.65534917      -5.16924746       8.12734901
Si       1.89529349       1.66009397       2.95726172
Si       0.38083703       3.13758539       6.04726512
Si      -0.04340612       2.82938153       2.47630806
Si       2.20311869      -2.39518598       7.85415320
22
Lattice="5.283499541085971 -1.755609996487677 1.5656192183393127 -4.392147503393665 11.304626893563277 -3.8955151692336605 1.1039926062681262 -5.276451423700309 10.039856423925672" Properties=species:S:1:pos:R:3 unique_starting_index=18 config_type=initial n_minim_iter=6 stress="8.45642365244289e-05 -0.0015400324307559981 0.003174003734704429 -0.0015400324307559981 0.00018902087422095908 -0.0033383673838096295 0.003174003734704429 -0.0033383673838096295 -0.0006299225593374613" pbc="T T T"
Si      -0.06664089       8.79710456      -0.65764136
Si       2.15388970      -0.76211302       5.98078393
Si       0.70386954      -4.87054554       9.70663763
Si       4.97024405      -3.61494811       9.82379458
Si      -1.10879066       0.32098066       7.55346707
Si       4.03959602       1.95822153       2.06512111
Si       2.68210222      -0.27991006       1.68252817
Si       2.05602117       0.10257752       8.23299256
Si       3.08099339      -5.11121749       9.46351784
Si      -0.09104837       0.51792617       5.42678906
Si       4.14488564      -0.80979582       4.90483488
Si      -0.47135539       4.31949906       4.24242325
Si       0.16601734      -1.77207052       4.97774066
Si      -2.28778589       7.98529851      -2.30176683
Si       2.26926946       1.62174629       5.31765108
Si      -0.86537715       6.33820206      -0.52001015
Si       0.95262359      -1.59416486       2.77317119
Si       5.71846446      -5.25493706       8.22280451
Si       1.92613580       1.66386074       2.95164020
Si       0.41660227       3.08758423       6.03375100
Si      -0.02375137       2.80432253       2.45876816
Si       2.26013019      -2.45418809       7.91076551
22
Lattice="5.249193876782174 -1.6971367430060587 1.5461778284781305 -4.270569043864501 11.204779196868447 -3.8507846488745563 1.013558228949859 -5.196614821024509 10.08751682072309" Properties=species:S:1:pos:R:3 unique_starting_index=18 config_type=initial n_minim_iter=7 stress="-0.0010334584655341183 0.0018671448974519492 0.00038052960220264246 0.0018671448974519492 -0.0017120220408192335 -0.0016755613856450171 0.00038052960220264246 -0.0016755613856450171 0.006295777556246928" pbc="T T T"
Si       0.01246805       8.72488181      -0.59834560
Si       2.12105609      -0.68763910       6.00308901
Si       0.60503920      -4.79717296       9.78530559
Si       4.89693436      -3.51643091       9.85731578
Si      -1.13904027       0.35127609       7.63061021
Si       4.03982334       2.02927835       2.06842345
Si       2.67517407      -0.23188786       1.68514959
Si       2.02502061       0.16228366       8.29016710
Si       2.98709102      -5.01183400       9.49254506
Si      -0.12359533       0.52714067       5.47039887
Si       4.10771043      -0.76139435       4.90982407
Si      -0.45846754       4.31545915       4.29206354
Si       0.13468289      -1.74074232       5.00086963
Si      -2.19890398       7.91336063      -2.26962828
Si       2.25637944       1.66722363       5.36513201
Si      -0.82030869       6.28713109      -0.48907365
Si       0.94726880      -1.58584841       2.77646610
Si       5.61181785      -5.15336895       8.22912084
Si       1.93180592       1.71348632       2.96585430
Si       0.40570107       3.11055216       6.09525507
Si      -0.01635573       2.80312143       2.48781344
Si       2.18791835      -2.37445748       7.95651061
22
Lattice="5.239504618449785 -1.6758708011025651 1.5480037465941838 -4.254025922706363 11.207939859824945 -3.727702801678115 1.0503442736821487 -5.0996153402732185 10.00605848309547" Properties=species:S:1:pos:R:3 unique_starting_index=18 config_type=initial n_minim_iter=8 stress="-0.0018272588508118136 0.0022407984094769116 0.0033338089368500053 0.0022407984094769116 0.0015398797192764237 0.0036547895410090608 0.0033338089368500053 0.0036547895410090608 0.008244644522443773" pbc="T T T"
Si       0.03572728       8.69552292      -0.45177372
Si       2.14625330      -0.56890463       5.97846664
Si       0.61251664      -4.71313054       9.76466911
Si       4.94734854      -3.41456332       9.79731451
Si      -1.10326446       0.43504264       7.62828296
Si       4.05300731       2.14847609       2.11636202
Si       2.68556391      -0.17053567       1.70097887
Si       2.07647848       0.26976207       8.28148668
Si       3.00907545      -4.90258460       9.40967894
Si      -0.12234265       0.57222210       5.46287619
Si       4.12863760      -0.72785077       4.88203511
Si      -0.44173352       4.38294657       4.31882154
Si       0.17240049      -1.70212836       4.96165368
Si      -2.17575301       7.90763049      -2.17758280
Si       2.28014560       1.76576719       5.39514738
Si      -0.82394962       6.27583356      -0.41433917
Si       1.00765888      -1.59650229       2.73960423
Si       5.60098517      -5.07994105       8.16050182
Si       1.97986918       1.80940077       2.97647274
Si       0.43488842       3.20695368       6.12500788
Si      -0.02031584       2.85018326       2.49364231
Si       2.19263275      -2.25963226       7.92774138
22
Lattice="5.258619696226142 -1.6922470706562263 1.5062703742606025 -4.264927924183385 11.243344256770559 -3.7185920794579754 0.9836423393833292 -5.144581856360348 9.977700663152481" Properties=species:S:1:pos:R:3 unique_starting_index=18 config_type=initial n_minim_iter=9 stress="0.0031890932812648136 0.001471273859244756 -0.0017243619715399572 0.001471273859244756 0.0005929429358460938 0.0007165268246082313 -0.0017243619715399572 0.0007165268246082313 0.008544252547504714" pbc="T T T"
Si       0.03332366       8.64086074      -0.43957037
Si       2.10878613      -0.55254347       5.93217949
Si       0.51422007      -4.77153383       9.79257343
Si       4.92038574      -3.47184534       9.71274943
Si      -1.18010154       0.39595851       7.62184734
Si       4.06772616       2.21288554       2.07973432
Si       2.69168401      -0.14344940       1.68411038
Si       2.03433751       0.23743762       8.23067223
Si       2.95059382      -4.93352130       9.35198815
Si      -0.19488738       0.53146874       5.44106643
Si       4.12491799      -0.78574644       4.80525944
Si      -0.50304545       4.36883552       4.27867822
Si       0.15556326      -1.73672199       4.94356406
Si      -2.17393486       7.91392803      -2.17642075
Si       2.24216442       1.76771791       5.36027491
Si      -0.84896408       6.24966963      -0.42526272
Si       1.04817120      -1.64625664       2.71007686
Si       5.54862653      -5.13599806       8.08949588
Si       2.00015886       1.84272587       2.93292797
Si       0.38232610       3.19576256       6.09270596
Si      -0.06978356       2.84954414       2.44868380
Si       2.12032818      -2.26839376       7.89428549
22
Lattice="5.234175532177457 -1.7057840445146035 1.5018201277011871 -4.247474968287621 11.336259045607044 -3.692028541930938 0.9942875130809077 -5.186872377556635 9.894656315084378" Properties=species:S:1:pos:R:3 unique_starting_index=18 config_type=initial n_minim_iter=10 stress="-0.00019432297617968163 0.001189612995464808 -0.000866286694187388 0.001189612995464808 0.0030304703346587486 0.00075976223667052 -0.000866286694187388 0.00075976223667052 0.002992982690301667" pbc="T T T"
Si       0.03919991       8.68103320      -0.41635413
Si       2.10255332      -0.54221833       5.88753987
Si       0.51328815      -4.82721959       9.72944575
Si       4.91419895      -3.50122035       9.62778766
Si      -1.16915328       0.38085062       7.55691691
Si       4.06381352       2.26882789       2.08100180
Si       2.67416082      -0.12565320       1.68063001
Si       2.03935851       0.23893479       8.16312861
Si       2.94501246      -4.96606462       9.26987227
Si      -0.19645810       0.53040707       5.39647224
Si       4.11921991      -0.80651455       4.75994473
Si      -0.50448348       4.40480450       4.24045160
Si       0.17792295      -1.76216589       4.90433133
Si      -2.16320264       7.97171792      -2.16023524
Si       2.23211408       1.80040338       5.31948514
Si      -0.84123693       6.28432715      -0.41843489
Si       1.07394022      -1.66978850       2.68270987
Si       5.52230034      -5.18121026       8.02389478
Si       2.01339643       1.87757277       2.91205178
Si       0.40119093       3.22925727       6.04594369
Si      -0.07957863       2.87764846       2.40945492
Si       2.11214486      -2.27343252       7.82951201
22
Lattice="5.281444696458828 -1.7149368824502016 1.5116610116832876 -4.343583383397428 11.270503103056111 -3.6642998489087684 1.068955060713266 -5.134263381814147 9.829186669688012" Properties=species:S:1:pos:R:3 unique_starting_index=18 config_type=initial n_minim_iter=11 stress="0.00252570123230972 -0.0015701083040557443 0.0007234790906311805 -0.0015701083040557443 -0.0029786768743707446 0.0019934148074582103 0.0007234790906311805 0.0019934148074582103 -0.002811514600457268" pbc="T T T"
Si       0.00243475       8.59420226      -0.38201240
Si       2.13678549      -0.52695699       5.86611035
Si       0.57052909      -4.79772675       9.67421892
Si       4.99936616      -3.47722599       9.57758754
Si      -1.15605165       0.37473595       7.50296718
Si       4.10819431       2.27277731       2.10162733
Si       2.68417560      -0.11719083       1.68847913
Si       2.08485183       0.24386228       8.12178416
Si       3.02162523      -4.91696809       9.21081536
Si      -0.18374190       0.53681461       5.36596746
Si       4.17788710      -0.81896337       4.73929653
Si      -0.52327856       4.38756364       4.22373545
Si       0.22886877      -1.75124847       4.87767708
Si      -2.22305187       7.91120248      -2.14300855
Si       2.24869082       1.80919299       5.29736754
Si      -0.86560800       6.23178435      -0.40145776
Si       1.12523986      -1.65775371       2.66677938
Si       5.60898787      -5.15662029       7.98440525
Si       2.04280333       1.87672949       2.91202140
Si       0.43396047       3.22891016       6.02156879
Si      -0.09683923       2.86642129       2.38043772
Si       2.16366078      -2.23824057       7.78066329
22
Lattice="5.238180728698587 -1.7282210594208935 1.5140457407567172 -4.284496329536278 11.38736491021328 -3.713685412874893 1.0468081566468903 -5.240932194673369 9.81510181927802" Properties=species:S:1:pos:R:3 unique_starting_index=18 config_type=initial n_minim_iter=12 stress="-0.0014365575189464784 -0.0009016518810218487 -1.9990297818326515e-05 -0.0009016518810218487 0.0004341576785239787 -0.0011595407138272563 -1.9990297818326515e-05 -0.0011595407138272563 -0.005959992121165337" pbc="T T T"
Si       0.03010285       8.64963617      -0.41878675
Si       2.11380804      -0.56004552       5.84623182
Si       0.54121319      -4.92483458       9.66509347
Si       4.94198950      -3.55731834       9.55771056
Si      -1.16409868       0.30135114       7.46013466
Si       4.10763650       2.32204752       2.07901979
Si       2.64722694      -0.10910942       1.68555540
Si       2.06415373       0.19865745       8.08341601
Si       2.97838990      -5.00385647       9.19389978
Si      -0.18709678       0.50472212       5.33821278
Si       4.14804882      -0.85188284       4.71960104
Si      -0.52476539       4.40087032       4.18291888
Si       0.24606009      -1.80452744       4.86959588
Si      -2.18744663       7.97340422      -2.18713785
Si       2.22080460       1.81807789       5.25587978
Si      -0.82653971       6.28172052      -0.43314087
Si       1.13153786      -1.68090894       2.67014432
Si       5.54804667      -5.24871304       7.97618055
Si       2.03463247       1.89694354       2.89346663
Si       0.45723648       3.23474319       5.97654393
Si      -0.09688820       2.87641886       2.33729685
Si       2.13499580      -2.29255173       7.74817586
22
Lattice="5.222315072507626 -1.7061712232021091 1.5392148917707649 -4.242405619734474 11.365499376690966 -3.739453096577761 1.0625669646277849 -5.231337143816013 9.851211587215014" Properties=species:S:1:pos:R:3 unique_starting_index=18 config_type=initial n_minim_iter=13 stress="-0.0027857374410385403 -0.00035361319741971747 0.0008899596898373819 -0.00035361319741971747 0.0010142558721270645 -0.000751076874158017 0.0008899596898373819 -0.000751076874158017 -0.0024043326797430317" pbc="T T T"
Si       0.07586963       8.59330222      -0.39074734
Si       2.13473106      -0.53032970       5.86654773
Si       0.53443516      -4.94566285       9.72348470
Si       4.93567832      -3.54020368       9.63552888
Si      -1.16000082       0.26856217       7.47742604
Si       4.15309408       2.40466052       2.07819448
Si       2.62719717      -0.07461799       1.70603234
Si       2.09187840       0.21172319       8.12333380
Si       2.97266412      -4.96683129       9.23191789
Si      -0.17102795       0.48775856       5.35046509
Si       4.15034573      -0.83788494       4.74976704
Si      -0.51393890       4.39515987       4.20293784
Si       0.30211205      -1.80257417       4.88487923
Si      -2.15234736       7.91207400      -2.21932490
Si       2.22410995       1.85487180       5.27637124
Si      -0.77746210       6.26547485      -0.43545491
Si       1.16796933      -1.67171728       2.70012167
Si       5.53045623      -5.24449571       8.02061998
Si       2.04514640       1.95141535       2.91129956
Si       0.50884394       3.26212478       5.99846851
Si      -0.07530341       2.86123301       2.33631585
Si       2.13572196      -2.26220113       7.76292577
22
Lattice="5.236587490212943 -1.6888823299277602 1.5433204793011563 -4.235763686049002 11.305849650764044 -3.7538124440960026 1.051620786156281 -5.204465320542554 9.896408069581323" Properties=species:S:1:pos:R:3 unique_starting_index=18 config_type=initial n_minim_iter=14 stress="-0.0006568534017524707 7.926417628258717e-05 -0.0001496824939432235 7.926417628258717e-05 0.0006657464357006038 -0.0005860767047348806 -0.0001496824939432235 -0.0005860767047348806 0.000486786758626436" pbc="T T T"
Si       0.09291604       8.57250316      -0.40056093
Si       2.14156806      -0.53364894       5.89417769
Si       0.52747287      -4.91822600       9.75518880
Si       4.92751357      -3.51655775       9.69602806
Si      -1.17424942       0.26494640       7.50737774
Si       4.17064379       2.38203814       2.07747900
Si       2.62850284      -0.08031173       1.70935990
Si       2.09179620       0.21578389       8.16022186
Si       2.96583769      -4.93861195       9.28059377
Si      -0.16234379       0.48880483       5.37277762
Si       4.15514970      -0.81370902       4.78123516
Si      -0.51123418       4.37529510       4.23087124
Si       0.30413284      -1.78819749       4.91153924
Si      -2.14882873       7.86396514      -2.23393495
Si       2.22965458       1.84360924       5.29244549
Si      -0.75801131       6.25604242      -0.44227300
Si       1.15716555      -1.65030890       2.72162021
Si       5.54330937      -5.21114054       8.06154939
Si       2.04604553       1.94176370       2.92298803
Si       0.51086949       3.25463801       6.02335049
Si      -0.06080721       2.84406744       2.35699872
Si       2.13858840      -2.25544590       7.78594895
22
Lattice="5.276202377912906 -1.6408136600449386 1.5521444980204508 -4.223832672386202 11.166281392298732 -3.7359685016062025 1.048711532731994 -5.110215496156016 9.934625312579916" Properties=species:S:1:pos:R:3 unique_starting_index=18 config_type=initial n_minim_iter=15 stress="0.004064790735348984 0.0003710367682622617 -0.0003982467762183341 0.0003710367682622617 -0.001686801255494652 0.0012651801232650439 -0.0003982467762183341 0.0012651801232650439 0.005027144937133227" pbc="T T T"
Si       0.15255927       8.48013106      -0.34792671
Si       2.18117326      -0.47201128       5.92024776
Si       0.50340332      -4.82976907       9.81701281
Si       4.94775847      -3.44332798       9.78451584
Si      -1.20363679       0.27555872       7.54999006
Si       4.23049710       2.41472408       2.08676911
Si       2.64249294      -0.05333559       1.72246236
Si       2.13140317       0.26106813       8.20635758
Si       2.95861546      -4.82662125       9.32736398
Si      -0.14813574       0.48791568       5.39583516
Si       4.18719654      -0.76336960       4.81839209
Si      -0.51099537       4.34646245       4.28058655
Si       0.34998989      -1.74947056       4.94293303
Si      -2.13420602       7.73027494      -2.23387128
Si       2.25614321       1.85742233       5.32050607
Si      -0.72155469       6.21747800      -0.43969377
Si       1.19008464      -1.63182879       2.74280647
Si       5.56979141      -5.11953450       8.10452045
Si       2.09773497       1.98747266       2.92937685
Si       0.51988846       3.27625372       6.06821833
Si      -0.03268030       2.81998330       2.38997302
Si       2.13806201      -2.19058686       7.79186091
22
Lattice="5.262582299137866 -1.6221617744119898 1.5495110514232915 -4.16643082283964 11.185146607177854 -3.729256546882926 1.0260168249735047 -5.127093890524911 9.903375023056979" Properties=species:S:1:pos:R:3 unique_starting_index=18 config_type=initial n_minim_iter=16 stress="0.001585365122745219 0.0005594528915944788 -0.0005547628797155307 0.0005594528915944788 0.0008602610616611986 0.0005875472714312757 -0.0005547628797155307 0.0005875472714312757 0.001907926632580181" pbc="T T T"
Si       0.22198351       8.51418211      -0.32783659
Si       2.18370123      -0.44963068       5.90656673
Si       0.46355032      -4.85606850       9.80149328
Si       4.90508109      -3.46172462       9.77811615
Si      -1.23500055       0.22915312       7.51093115
Si       4.24968797       2.45850557       2.09633330
Si       2.61550184      -0.03799945       1.72329088
Si       2.13864906       0.26678990       8.16518479
Si       2.90417673      -4.82325743       9.30843280
Si      -0.13354127       0.47823079       5.37251649
Si       4.18562817      -0.74951657       4.80927253
Si      -0.51921020       4.36014039       4.27276348
Si       0.40185014      -1.77240869       4.95480453
Si      -2.10373471       7.71685985      -2.24028998
Si       2.24539117       1.87591280       5.27895464
Si      -0.66954208       6.26778181      -0.46576045
Si       1.21373867      -1.65016025       2.73547291
Si       5.53407785      -5.12485458       8.09756948
Si       2.15169490       2.03507368       2.90093191
Si       0.52868837       3.31140920       6.05045752
Si      -0.01819036       2.83574956       2.37333411
Si       2.10709725      -2.19531438       7.72285872
22
Lattice="5.257632562609228 -1.6052112638721303 1.5481662159514846 -4.133331910343463 11.171622122205285 -3.716531539869455 1.0182769002335 -5.122050064089419 9.866264861642188" Properties=species:S:1:pos:R:3 unique_starting_index=18 config_type=initial n_minim_iter=17 stress="-0.0013058505229804835 -0.00012869018764350817 0.00017077539433116613 -0.00012869018764350817 0.0006180602832500682 -0.0003525422001545707 0.00017077539433116613 -0.0003525422001545707 -0.0015085937077539714" pbc="T T T"
Si       0.28640113       8.50531807      -0.28713825
Si       2.19868786      -0.40640052       5.88338246
Si       0.42582047      -4.85787641       9.79984186
Si       4.88754505      -3.47509246       9.76664313
Si      -1.26887268       0.18463819       7.46860136
Si       4.28026348       2.51856482       2.10458375
Si       2.59759502      -0.01567058       1.72886580
Si       2.15885551       0.27500017       8.12051499
Si       2.85775382      -4.80031309       9.28198097
Si      -0.12505000       0.46064393       5.35089855
Si       4.19808514      -0.74301432       4.79251015
Si      -0.54202396       4.36602610       4.25803027
Si       0.47228050      -1.79200915       4.96309657
Si      -2.08255682       7.67523401      -2.24179834
Si       2.23579527       1.89764582       5.24030417
Si      -0.64098818       6.28794277      -0.49343477
Si       1.25655001      -1.68234320       2.72436977
Si       5.50540773      -5.12641128       8.08796127
Si       2.20891768       2.09115392       2.86876016
Si       0.52756441       3.33526405       6.03876982
Si      -0.00852597       2.84534552       2.35802763
Si       2.07604207      -2.18694879       7.65117543
22
Lattice="5.264067354412737 -1.573314526255981 1.5417176087926288 -4.103624778105242 11.083794950389185 -3.686642069252881 1.0007021336991404 -5.066112893996093 9.84359001288807" Properties=species:S:1:pos:R:3 unique_starting_index=18 config_type=initial n_minim_iter=18 stress="-0.002739056805852658 -0.000129353432344781 0.0005339208228644361 -0.000129353432344781 -0.0007241833125464702 -0.0009332622056925301 0.0005339208228644361 -0.0009332622056925301 -0.004305227447770107" pbc="T T T"
Si       0.37651996       8.47667450      -0.23034830
Si       2.22560222      -0.34352754       5.86330492
Si       0.37398395      -4.79701052       9.80681847
Si       4.87290737      -3.44728171       9.77586228
Si      -1.32476794       0.13598699       7.41997517
Si       4.34719901       2.57487823       2.10859377
Si       2.58182292       0.00240373       1.74198459
Si       2.17370328       0.29938269       8.08942472
Si       2.78567991      -4.73898259       9.27402849
Si      -0.11470373       0.44998229       5.35760813
Si       4.23116966      -0.70419496       4.79035080
Si      -0.58557570       4.37270362       4.25896967
Si       0.56501670      -1.80257311       4.99112618
Si      -2.05456375       7.58767723      -2.23124652
Si       2.21838108       1.93609748       5.20530638
Si      -0.62302792       6.28294930      -0.53058128
Si       1.28735445      -1.71008332       2.72619092
Si       5.47519518      -5.09410840       8.10029667
Si       2.23902058       2.12935740       2.84871876
Si       0.51000358       3.33710283       6.06033454
Si       0.01472133       2.85343460       2.37038826
Si       2.03694820      -2.16719874       7.57727783
22
Lattice="5.285149637743563 -1.5491235821768932 1.536024209304301 -4.107018716002352 10.97950811640135 -3.6619184281669366 0.9841643769944929 -4.988804848732391 9.88183064383871" Properties=species:S:1:pos:R:3 unique_starting_index=18 config_type=initial n_minim_iter=19 stress="-0.000940852594149847 -0.00035266989181119483 -0.00012103912070350614 -0.00035266989181119483 -5.314222801861755e-05 0.00026950992031156683 -0.00012103912070350614 0.00026950992031156683 -0.0004328997019139615" pbc="T T T"
Si       0.42931336       8.43587521      -0.18599242
Si       2.25262698      -0.29157701       5.87526722
Si       0.33605896      -4.70726300       9.85337366
Si       4.87495000      -3.39423656       9.83534690
Si      -1.37739468       0.11762185       7.41958395
Si       4.40313658       2.59603855       2.11128391
Si       2.57801808       0.00794590       1.76077852
Si       2.17263022       0.32920792       8.12157405
Si       2.73389550      -4.67095003       9.32093796
Si      -0.11236159       0.45163427       5.40660595
Si       4.27141354      -0.65536244       4.82266665
Si      -0.63099649       4.37833202       4.29836209
Si       0.62733792      -1.79663556       5.03894866
Si      -2.04523763       7.49978750      -2.21578943
Si       2.20231442       1.97568428       5.21618908
Si      -0.62909608       6.26092603      -0.55349709
Si       1.29428621      -1.71468046       2.75260759
Si       5.46515145      -5.04991943       8.15073964
Si       2.23493432       2.13352311       2.85876488
Si       0.47985738       3.32665075       6.12067307
Si       0.03311981       2.86120535       2.41327968
Si       2.01325582      -2.14464415       7.56946133
22
Lattice="5.310935409712302 -1.548329234636838 1.5396638316241358 -4.137114200878921 10.936864326046617 -3.683395368109827 0.9875203647996144 -4.975177038957197 9.924266607537072" Properties=species:S:1:pos:R:3 unique_starting_index=18 config_type=initial n_minim_iter=20 stress="0.0023642535508144776 0.0002586653613064221 -0.00010164269127111662 0.0002586653613064221 0.00012059276312440849 -0.000510679998861176 -0.00010164269127111662 -0.000510679998861176 0.0026381773001220247" pbc="T T T"
Si       0.40272629       8.39624181      -0.21864936
Si       2.26963747      -0.30188128       5.88590718
Si       0.34896373      -4.68671600       9.86661591
Si       4.91616186      -3.37026237       9.85999168
Si      -1.37358170       0.11511484       7.42285524
Si       4.40057241       2.56354589       2.10017295
Si       2.59376008      -0.00353605       1.76868973
Si       2.16218956       0.31566115       8.15968226
Si       2.75735986      -4.67165020       9.36368156
Si      -0.11503125       0.44356746       5.43539518
Si       4.31004351      -0.64221130       4.85369282
Si      -0.63102293       4.36143003       4.31532352
Si       0.60532595      -1.80022892       5.05224823
Si      -2.06166259       7.47804552      -2.21068983
Si       2.21302426       1.98657896       5.24523599
Si      -0.65014610       6.23053810      -0.55590874
Si       1.27191988      -1.69551783       2.78200320
Si       5.48916218      -5.04312872       8.18363501
Si       2.21282187       2.08623155       2.87780907
Si       0.47620315       3.28923878       6.12855874
Si       0.03163205       2.86727805       2.42933548
Si       2.03783097      -2.15723014       7.62014284
22
Lattice="5.32359882901114 -1.5121550082957596 1.5343617025144136 -4.104742730588034 10.853578337091653 -3.646863636191951 0.9691324021757711 -4.91296496422389 9.90869360326767" Properties=species:S:1:pos:R:3 unique_starting_index=18 config_type=initial n_minim_iter=21 stress="0.0019615155321059032 0.0008577397468968039 -0.0005966704630364951 0.0008577397468968039 0.0008366373204419346 0.0008141468412937585 -0.0005966704630364951 0.0008141468412937585 0.001966822421895179" pbc="T T T"
Si       0.46733406       8.34512792      -0.16934472
Si       2.30512772      -0.23266566       5.87015974
Si       0.30422764      -4.62821137       9.86364385
Si       4.91933718      -3.31593177       9.87130106
Si      -1.41708907       0.08633733       7.37906172
Si       4.42990125       2.61592567       2.10146825
Si       2.58112972       0.01809123       1.78216107
Si       2.17129001       0.34696063       8.15013278
Si       2.71256881      -4.59929193       9.36673340
Si      -0.10244690       0.43189675       5.43736122
Si       4.35732796      -0.59243820       4.86780194
Si      -0.65437065       4.36205158       4.34083858
Si       0.66868085      -1.79969785       5.07367766
Si      -2.04102893       7.38038009      -2.17999970
Si       2.21582917       2.04505072       5.23694719
Si      -0.61975400       6.22597073      -0.56834492
Si       1.29550819      -1.69557070       2.79706951
Si       5.46413526      -4.99798715       8.19067471
Si       2.26165871       2.12610970       2.86553470
Si       0.46718718       3.31056740       6.13609506
Si       0.05173993       2.89516349       2.44293232
Si       2.01603054      -2.12866316       7.57384525
