24
Lattice="7.125841394752104 0.7807708092343966 -0.4041739858472838 -2.983700779627148 6.979791238679867 1.4819729764031775 -0.5764516160669463 1.4802499034438785 8.367460365208792" Properties=species:S:1:pos:R:3 unique_starting_index=90 config_type=initial n_minim_iter=1 energy=-3905.19123312694 free_energy=-3905.19123312694 pbc="T T T"
Si       4.35423194       1.67666676       5.29404689
Si       0.87365795       2.63553925       0.52238505
Si       3.57251194       5.37438764       1.92399966
Si       1.74254026       0.78291534       2.91961685
Si       3.82369806       4.83858111       9.00131854
Si      -1.72850591       6.24116183       7.63958155
Si       1.30200937       2.94445285       3.97164347
Si       1.62139656       5.10321963       7.10761822
Si      -2.36068865       8.64031912       7.39133747
Si       3.23409877       4.01518810       5.50961540
Si       1.39739150       4.88877350       2.61451765
Si       3.59148574       7.77483219       3.45644272
Si       2.84148431       7.67558953       1.06070034
Si       5.27790400       4.58876732       6.99603009
Si      -0.61474496       5.21194776       1.47438087
Si      -2.46766143       8.72922647       9.86375200
Si      -0.76288734       2.41437501       2.48801419
Si       2.92700251       7.04702084       7.80839527
Si       2.77068125       2.03017104       7.09691406
Si      -0.47179884       4.21390857       5.43313474
Si       0.10822255       6.71012368       5.99929508
Si       3.30941520       1.34715297       1.10688757
Si       4.81606820       4.26738776       3.67576776
Si       1.49316078       6.73852368       4.04943754
24
Lattice="7.137856904488753 0.7850109772321 -0.4124820877782184 -2.9805763260927325 6.93439633873961 1.495306166152077 -0.5878912320420301 1.4853349197794037 8.349203150145856" Properties=species:S:1:pos:R:3 unique_starting_index=90 config_type=initial n_minim_iter=2 stress="-0.0024065114528446082 0.000597826358424129 -0.000446991799106559 0.000597826358424129 -0.0043381697771534625 1.2104872387597127e-05 -0.000446991799106559 1.2104872387597127e-05 -0.0031558077423726612" pbc="T T T"
Si       4.35637100       1.68359275       5.27612679
Si       0.87751363       2.62028896       0.52371331
Si       3.58389671       5.34768377       1.92223835
Si       1.73890976       0.78760380       2.90923116
Si       3.82371039       4.83115873       8.98138475
Si      -1.73608396       6.21416980       7.63140169
Si       1.30143283       2.93472776       3.96507837
Si       1.61988481       5.08713659       7.09529696
Si      -2.36512664       8.59611311       7.39017527
Si       3.23541896       4.00425461       5.49837336
Si       1.40199120       4.86422862       2.61643535
Si       3.60071017       7.73761190       3.45509314
Si       2.85349049       7.63254400       1.06884531
Si       5.28055387       4.57874077       6.97901850
Si      -0.61016439       5.18155082       1.48171610
Si      -2.47267467       8.68928986       9.85880574
Si      -0.76572560       2.40392937       2.48496921
Si       2.92974631       7.02158480       7.79581913
Si       2.76788596       2.03306636       7.07870978
Si      -0.47399578       4.19480654       5.42715228
Si       0.11049658       6.67626448       5.99948482
Si       3.31415122       1.34404963       1.10118838
Si       4.82314612       4.25343992       3.66728852
Si       1.50177738       6.70703646       4.04805340
24
Lattice="7.200187296475174 0.7910712794070631 -0.4239163859447833 -3.0000650938578963 6.923712082802385 1.5284728054418721 -0.6063502278448398 1.5107851828620602 8.376346599955378" Properties=species:S:1:pos:R:3 unique_starting_index=90 config_type=initial n_minim_iter=3 stress="0.005316883939673841 0.0017056494140930305 -0.0015143485761530892 0.0017056494140930305 -0.0019304633151483342 0.001031881771024997 -0.0015143485761530892 0.001031881771024997 0.002545730298962363" pbc="T T T"
Si       4.38963989       1.70919622       5.28543699
Si       0.88658678       2.61673914       0.53049126
Si       3.62117000       5.34597244       1.93620251
Si       1.74182518       0.80314621       2.91182435
Si       3.84938023       4.86198629       9.01482764
Si      -1.76278758       6.22965509       7.66929551
Si       1.30753200       2.94412643       3.98401755
Si       1.62649641       5.10677971       7.12623017
Si      -2.39309591       8.60395583       7.43972959
Si       3.25607363       4.02012011       5.52178885
Si       1.41483243       4.86555596       2.64192238
Si       3.63053105       7.74122046       3.48139859
Si       2.88211846       7.62489883       1.09582893
Si       5.31614025       4.59819138       7.00475224
Si      -0.61025918       5.17813949       1.50650721
Si      -2.49761016       8.70627470       9.92117162
Si      -0.77726857       2.41114972       2.49551247
Si       2.95060877       7.04150841       7.83251717
Si       2.78383900       2.05434930       7.10056828
Si      -0.48066360       4.20078524       5.45560328
Si       0.11359329       6.67861692       6.04721280
Si       3.34112184       1.34653165       1.10175956
Si       4.86205140       4.26313986       3.68432537
Si       1.52409004       6.71509524       4.07694620
24
Lattice="7.162967213015242 0.7545662909114174 -0.3977118394952896 -3.020795151521324 6.9838488431057755 1.5387235916728326 -0.5877499631715184 1.555565839065592 8.328895227784061" Properties=species:S:1:pos:R:3 unique_starting_index=90 config_type=initial n_minim_iter=4 stress="2.2993025448380136e-05 8.747799391140354e-05 0.000484186476954071 8.747799391140354e-05 -6.638868247580405e-05 0.0019858496895992467 0.000484186476954071 0.0019858496895992467 -0.0011399593351658095" pbc="T T T"
Si       4.38738888       1.73202337       5.26639864
Si       0.86773859       2.62249533       0.53394119
Si       3.59050487       5.35148609       1.94785914
Si       1.71428612       0.82461574       2.88823731
Si       3.84413676       4.91443509       8.99356173
Si      -1.78522282       6.31110619       7.62370763
Si       1.29269458       2.96533986       3.97970498
Si       1.61095047       5.16017935       7.10331413
Si      -2.42433539       8.69574699       7.41300003
Si       3.23005045       4.04674093       5.51866314
Si       1.39033534       4.89382280       2.66316551
Si       3.56907780       7.77953906       3.49393372
Si       2.82161204       7.65029869       1.13850122
Si       5.28063831       4.61209271       7.00099891
Si      -0.62663554       5.21906232       1.52277241
Si      -2.49599121       8.81055844       9.89766153
Si      -0.79118768       2.45254418       2.47050687
Si       2.92724784       7.10025181       7.81536745
Si       2.79032961       2.06822871       7.07979087
Si      -0.48015561       4.23135181       5.43581649
Si       0.10959590       6.71768038       6.06701400
Si       3.31912158       1.33049295       1.10700556
Si       4.82698476       4.26877115       3.70070805
Si       1.51972999       6.77230323       4.07963146
24
Lattice="7.156231095985196 0.74896788144298 -0.41492591255064215 -3.027546842562949 6.970874983552187 1.504695851127663 -0.6026719090366887 1.5048713299114067 8.33515456450012" Properties=species:S:1:pos:R:3 unique_starting_index=90 config_type=initial n_minim_iter=5 stress="-0.00020719960168606998 -0.0002910575137849547 -0.0005087325732719218 -0.0002910575137849547 -0.0007613294194741172 -0.0009884695899259272 -0.0005087325732719218 -0.0009884695899259272 6.670470939154047e-05" pbc="T T T"
Si       4.37658512       1.69973677       5.25550675
Si       0.86227897       2.61350639       0.51554481
Si       3.58078119       5.32698526       1.91047690
Si       1.70064581       0.80856095       2.88304987
Si       3.82311449       4.85434396       8.97442719
Si      -1.80804804       6.26359679       7.59760356
Si       1.28086657       2.93540701       3.96807132
Si       1.59333106       5.11280467       7.08084675
Si      -2.44873601       8.64607080       7.37643294
Si       3.21083355       4.00719572       5.50150498
Si       1.38075972       4.87352002       2.64075102
Si       3.54950723       7.75040961       3.44502210
Si       2.80723593       7.63166838       1.09285312
Si       5.25708302       4.55750462       6.97862612
Si      -0.63231363       5.20646848       1.49564646
Si      -2.51580387       8.74594715       9.86954660
Si      -0.79972133       2.44067154       2.45681815
Si       2.90603847       7.04564144       7.77901124
Si       2.77679985       2.01656234       7.07688029
Si      -0.49130962       4.18936719       5.42042365
Si       0.09656523       6.67069491       6.04321978
Si       3.31297088       1.31721526       1.09431438
Si       4.81247785       4.23466080       3.67662310
Si       1.51119908       6.74213100       4.04389287
24
Lattice="7.147968473415828 0.7800379826506482 -0.37724767534752085 -2.9882981852642945 6.999483524203126 1.5162311738745071 -0.5564927567136086 1.5444492472301254 8.32016330985567" Properties=species:S:1:pos:R:3 unique_starting_index=90 config_type=initial n_minim_iter=6 stress="-8.99858962011292e-05 0.002290190753909033 0.0020210044634195105 0.002290190753909033 0.0026834881876883284 -0.00043558452411987 0.0020210044634195105 -0.00043558452411987 -0.000401625702203828" pbc="T T T"
Si       4.42290879       1.77479955       5.25849193
Si       0.86789814       2.62345896       0.51707239
Si       3.61437208       5.35608178       1.93576935
Si       1.69516351       0.84023842       2.88570937
Si       3.88375154       4.93587454       8.99397004
Si      -1.76808317       6.32970021       7.58115664
Si       1.30666747       2.96506579       3.98348646
Si       1.65160743       5.17876257       7.09014998
Si      -2.40386425       8.71309001       7.38110188
Si       3.23193668       4.06698314       5.53656368
Si       1.42062245       4.92410679       2.68135125
Si       3.58560163       7.83925817       3.47352196
Si       2.83206258       7.67716947       1.14583984
Si       5.29124829       4.61814516       7.01407150
Si      -0.59701844       5.23920287       1.50563644
Si      -2.41540226       8.81945198       9.88651350
Si      -0.78477989       2.48152032       2.43963509
Si       2.97322756       7.13788906       7.79013114
Si       2.82741522       2.04043817       7.08688677
Si      -0.43931044       4.20060883       5.42565410
Si       0.16321309       6.72232993       6.06612886
Si       3.32548452       1.33696506       1.11086432
Si       4.83928144       4.27213500       3.72343525
Si       1.57323848       6.80896980       4.08288405
24
Lattice="7.129135593386547 0.7046732422115904 -0.39728221256635254 -3.058190731236509 7.0364821345295105 1.5913803860065836 -0.600434884130005 1.6213559027089814 8.3579253712323" Properties=species:S:1:pos:R:3 unique_starting_index=90 config_type=initial n_minim_iter=7 stress="-0.0011640917074575653 -0.0007684944258868969 0.000192913521417442 -0.0007684944258868969 0.003060187370382035 0.0016298988069066724 0.000192913521417442 0.0016298988069066724 0.00245203528002565" pbc="T T T"
Si       4.40053297       1.80290118       5.25555108
Si       0.83130397       2.60774763       0.52367408
Si       3.55439021       5.31088284       1.96537055
Si       1.65840714       0.85194401       2.89765812
Si       3.79343973       4.97088395       9.04605457
Si      -1.87721194       6.41817334       7.64843090
Si       1.25961645       2.97876487       4.02003593
Si       1.58048209       5.22418667       7.14599214
Si      -2.54342641       8.79870267       7.48520203
Si       3.14582940       4.08498971       5.59337939
Si       1.37034841       4.94261959       2.74595462
Si       3.48564138       7.85590789       3.52484282
Si       2.74194693       7.64305425       1.21330680
Si       5.20076797       4.61126248       7.06017590
Si      -0.64544848       5.25506119       1.54631446
Si      -2.51948222       8.91998954      10.01269803
Si      -0.82056102       2.53131221       2.45451708
Si       2.87337586       7.18454558       7.84457980
Si       2.78900231       2.04027541       7.11522738
Si      -0.49122303       4.21572140       5.48137402
Si       0.08184439       6.76937261       6.13668856
Si       3.31279218       1.31130090       1.11186549
Si       4.77396798       4.23097665       3.76990672
Si       1.49882283       6.83066204       4.16558484
24
Lattice="7.17099113586418 0.6595357662818547 -0.38803384339000035 -3.1186183037775095 7.043088218597268 1.5933332092749761 -0.6065964476824834 1.6369867840970131 8.313031062394403" Properties=species:S:1:pos:R:3 unique_starting_index=90 config_type=initial n_minim_iter=8 stress="0.0029242491173127345 -0.001966454705721348 0.0014363209191329185 -0.001966454705721348 0.0015957305784676506 0.0004088650031361644 0.0014363209191329185 0.0004088650031361644 0.0001033975695187031" pbc="T T T"
Si       4.44370677       1.80919293       5.21323298
Si       0.81328390       2.58939908       0.51124213
Si       3.55186834       5.26043936       1.95931494
Si       1.66251141       0.84399061       2.89485886
Si       3.78579685       4.94994344       9.00201099
Si      -1.93731889       6.43757931       7.60767213
Si       1.25602276       2.96698847       4.00617782
Si       1.57636680       5.21980458       7.11660924
Si      -2.63820296       8.81553882       7.46474581
Si       3.12289493       4.07505848       5.59289825
Si       1.36258308       4.94817243       2.75954238
Si       3.46620741       7.86207070       3.51226602
Si       2.71563599       7.60327877       1.22825248
Si       5.20377322       4.57609798       7.03776438
Si      -0.66992584       5.24969415       1.52949622
Si      -2.56591806       8.92935591       9.98397809
Si      -0.83570832       2.55834848       2.43458985
Si       2.85696519       7.18203995       7.79729476
Si       2.81199099       1.99614700       7.07882002
Si      -0.50717336       4.18679351       5.46476326
Si       0.04751493       6.77955467       6.09594175
Si       3.34033169       1.29115434       1.11147201
Si       4.78162181       4.17363032       3.77856041
Si       1.47023563       6.81689195       4.17996216
24
Lattice="7.121370620974341 0.687237833022606 -0.43419169216559816 -3.077283783798078 7.03926095205474 1.6392349471337875 -0.6515607169546401 1.6607954895343504 8.34963671743774" Properties=species:S:1:pos:R:3 unique_starting_index=90 config_type=initial n_minim_iter=9 stress="-0.0009415930786707033 0.0010154581389082973 -0.00271433001508856 0.0010154581389082973 0.0005573675309210136 0.0007456503177065551 -0.00271433001508856 0.0007456503177065551 -9.056524258988877e-05" pbc="T T T"
Si       4.39941876       1.86683070       5.18613359
Si       0.80471647       2.58739224       0.50050404
Si       3.53501893       5.26358516       1.95179604
Si       1.63951863       0.85469171       2.91093054
Si       3.70110486       4.99033873       9.01426326
Si      -1.95687695       6.45954469       7.65998397
Si       1.23728940       2.98168039       4.01859336
Si       1.54529355       5.25494477       7.14659479
Si      -2.66362290       8.83853633       7.54568249
Si       3.05296678       4.11379179       5.62408552
Si       1.35968763       4.98525450       2.78847850
Si       3.45127226       7.92994318       3.51950594
Si       2.72190604       7.61286417       1.23690989
Si       5.12675206       4.61825606       7.04389268
Si      -0.64149502       5.25189476       1.53494162
Si      -2.56539431       8.94651794      10.07124494
Si      -0.82729787       2.58562631       2.45034168
Si       2.80864780       7.23601728       7.80705576
Si       2.75903979       1.99438388       7.08454841
Si      -0.51841682       4.17452034       5.50773059
Si       0.02750543       6.82173245       6.11026956
Si       3.32443429       1.30617014       1.10091677
Si       4.73363185       4.17785229       3.79000390
Si       1.45057345       6.83825556       4.22613875
24
Lattice="7.110924609798117 0.670555210322227 -0.3918665482017555 -3.077054638636018 6.99813906898823 1.6196266061214066 -0.6002702345962639 1.6422979729359077 8.388145844536382" Properties=species:S:1:pos:R:3 unique_starting_index=90 config_type=initial n_minim_iter=10 stress="-0.0006822843435353315 0.0003685453775160035 0.001055423830742811 0.0003685453775160035 -0.003983397351105518 -0.00020521424519640672 0.001055423830742811 -0.00020521424519640672 0.0015413571878481126" pbc="T T T"
Si       4.42534053       1.84403374       5.23187731
Si       0.79957611       2.56744988       0.50133926
Si       3.53481776       5.21817157       1.97751284
Si       1.66491736       0.84201616       2.94051798
Si       3.73978501       4.94297956       9.07481915
Si      -1.91261043       6.40895777       7.68043945
Si       1.26189807       2.95620442       4.04061073
Si       1.57726220       5.21501056       7.19059454
Si      -2.63522754       8.78150147       7.56508580
Si       3.07288377       4.07665450       5.67273443
Si       1.36339999       4.95256498       2.80682720
Si       3.45497077       7.87924741       3.55672157
Si       2.71963754       7.55583958       1.24838286
Si       5.15819111       4.57699118       7.10849817
Si      -0.63417690       5.21569258       1.52780181
Si      -2.51179566       8.87951964      10.09926942
Si      -0.80883727       2.57373813       2.45725347
Si       2.83892904       7.17843083       7.85416373
Si       2.79934415       1.96184004       7.13336881
Si      -0.49079528       4.13988374       5.53423468
Si       0.04906884       6.77905829       6.13067341
Si       3.32530189       1.28458617       1.13004969
Si       4.74372927       4.12955149       3.84005562
Si       1.46311133       6.78561670       4.24837794
24
Lattice="7.13561099735401 0.6326741827934035 -0.38175741698226734 -3.12743573382193 7.0280258178635036 1.5884618247336504 -0.6005372869818504 1.6291985177880943 8.322791552752719" Properties=species:S:1:pos:R:3 unique_starting_index=90 config_type=initial n_minim_iter=11 stress="0.00193831566901298 -0.0008172849268891664 0.0018648073092379772 -0.0008172849268891664 -0.00237519498719585 -0.002190889968728718 0.0018648073092379772 -0.002190889968728718 -0.001966936644559964" pbc="T T T"
Si       4.43693414       1.81472185       5.17668385
Si       0.78240222       2.56454162       0.48483430
Si       3.52594365       5.19810624       1.95317466
Si       1.69078920       0.82982013       2.92416317
Si       3.72948804       4.91949889       8.99163269
Si      -1.93222807       6.40363720       7.60597037
Si       1.26878608       2.94643797       3.99778330
Si       1.55077661       5.21456867       7.13397382
Si      -2.69843820       8.80607640       7.50105362
Si       3.05886918       4.05451603       5.63297569
Si       1.32991006       4.95573514       2.77881616
Si       3.42151467       7.88621094       3.53326217
Si       2.70437105       7.54947669       1.22108460
Si       5.16107079       4.55391708       7.05326813
Si      -0.64694393       5.22169892       1.49706911
Si      -2.55106417       8.88276263      10.00630735
Si      -0.81135835       2.59328243       2.43464179
Si       2.81025423       7.16371266       7.77856823
Si       2.81240983       1.92114907       7.07173082
Si      -0.51178687       4.13514290       5.49601093
Si       0.01066845       6.78916229       6.07656789
Si       3.32531400       1.24430229       1.13174277
Si       4.73917093       4.08461215       3.81922094
Si       1.44423279       6.78073694       4.19142701
24
Lattice="7.115548391794518 0.6036834334547274 -0.37750070046155254 -3.147493167945979 7.054462811902167 1.6228414901698418 -0.6041142846464491 1.6735777808764944 8.334893867690967" Properties=species:S:1:pos:R:3 unique_starting_index=90 config_type=initial n_minim_iter=12 stress="0.0011028991083766439 -0.0009927702854179072 0.0017015047183571782 -0.0009927702854179072 -0.002408172549044705 -0.0011579419558302487 0.0017015047183571782 -0.0011579419558302487 -0.0019113606816365404" pbc="T T T"
Si       4.43022364       1.84559579       5.16050379
Si       0.75839804       2.55631413       0.48071221
Si       3.50430691       5.17755276       1.97194021
Si       1.69093921       0.84517371       2.93573173
Si       3.69148218       4.96059709       9.01099160
Si      -1.95326596       6.44927933       7.62872116
Si       1.26673667       2.95946442       4.01018323
Si       1.51891304       5.26464497       7.16583801
Si      -2.75787799       8.87154605       7.55970594
Si       3.01124887       4.07715157       5.67506318
Si       1.30174372       4.98175146       2.81827229
Si       3.37373597       7.93302309       3.58149480
Si       2.68001965       7.54103741       1.26017777
Si       5.12275784       4.57730917       7.08513324
Si      -0.64469023       5.23189376       1.50966087
Si      -2.56034200       8.94063767      10.06761666
Si      -0.81134458       2.64046256       2.43931943
Si       2.76995127       7.21179491       7.80067216
Si       2.81139190       1.91508949       7.07749174
Si      -0.52269807       4.14285582       5.53192982
Si      -0.01621715       6.83344956       6.11849860
Si       3.31175920       1.21611446       1.14543463
Si       4.70571831       4.05671142       3.86304846
Si       1.42946182       6.80522274       4.22731662
24
Lattice="7.081255666233292 0.609081820210966 -0.38958309565179144 -3.131805522113211 7.085573800513561 1.657443337123585 -0.6162432951020534 1.7079531784861164 8.368913391550318" Properties=species:S:1:pos:R:3 unique_starting_index=90 config_type=initial n_minim_iter=13 stress="-0.0004959846881260801 2.1308245957271954e-05 -0.0001525361684342312 2.1308245957271954e-05 0.000543576329519298 0.0002445965230522163 -0.0001525361684342312 0.0002445965230522163 0.00020362237447492403" pbc="T T T"
Si       4.39641654       1.87560375       5.15457588
Si       0.74414536       2.56189452       0.48007447
Si       3.48727866       5.19744221       1.98825921
Si       1.68986253       0.86640041       2.94851089
Si       3.64790618       5.01674469       9.04257771
Si      -1.94526965       6.48878452       7.67432460
Si       1.26828169       2.98302010       4.02605438
Si       1.48328752       5.32598953       7.20658232
Si      -2.76948062       8.93711532       7.62979796
Si       2.97191971       4.11243748       5.71107948
Si       1.28473189       5.01243830       2.84256859
Si       3.34988722       7.99964992       3.62845692
Si       2.68513518       7.57054790       1.28280298
Si       5.08233649       4.63320904       7.11682343
Si      -0.62783291       5.25121542       1.52462724
Si      -2.55130556       8.99883568      10.14165858
Si      -0.80202107       2.67732278       2.45533433
Si       2.73773842       7.27797976       7.83666444
Si       2.79329277       1.93841577       7.09130419
Si      -0.53135501       4.17195283       5.57558881
Si      -0.02518111       6.88785103       6.17261252
Si       3.28763120       1.20625425       1.15255565
Si       4.67007847       4.07017105       3.89295974
Si       1.42729831       6.84630298       4.25292111
24
Lattice="7.072557000859599 0.5995593936376111 -0.3990809403925439 -3.141236078587435 7.123685028573736 1.699854203296464 -0.6337213307538331 1.758401325561561 8.377317646934747" Properties=species:S:1:pos:R:3 unique_starting_index=90 config_type=initial n_minim_iter=14 stress="-0.0006523952151264757 0.0010070542314433576 -0.0014884850629093716 0.0010070542314433576 0.001219204936675688 0.0016865356151778458 -0.0014884850629093716 0.0016865356151778458 0.0014596383738424122" pbc="T T T"
Si       4.38146418       1.91022802       5.11360269
Si       0.71131184       2.55236616       0.47175469
Si       3.47248433       5.19631440       2.00830845
Si       1.67770215       0.90379171       2.95485845
Si       3.60042905       5.07022345       9.05769233
Si      -1.97126641       6.55042599       7.69694457
Si       1.27721326       3.00169385       4.04382202
Si       1.43448915       5.40354711       7.22635618
Si      -2.82938777       9.02388492       7.68792234
Si       2.91050891       4.15054982       5.75315853
Si       1.28323016       5.03834010       2.87497331
Si       3.33163059       8.09522142       3.67414539
Si       2.69885989       7.58914922       1.32780130
Si       5.04220351       4.68640850       7.13999288
Si      -0.62525215       5.27011763       1.52927447
Si      -2.54944197       9.06800641      10.21161525
Si      -0.80688441       2.74250025       2.45069192
Si       2.70991251       7.37493911       7.84349952
Si       2.80320079       1.96028524       7.07495084
Si      -0.54838126       4.19175398       5.60940531
Si      -0.02620943       6.95497128       6.22809195
Si       3.27853576       1.19024547       1.15026708
Si       4.63852271       4.06821536       3.93260246
Si       1.42586342       6.89014705       4.29317500
24
Lattice="7.078714933884761 0.6084694503291819 -0.399400850841091 -3.1361661147507283 7.122952195990612 1.6805871950067655 -0.6310734763701068 1.7379822666616338 8.367329530374935" Properties=species:S:1:pos:R:3 unique_starting_index=90 config_type=initial n_minim_iter=15 stress="-0.0005848924897450638 0.0008209127460489342 -0.001275087807798654 0.0008209127460489342 0.002429752369548264 0.0005052134038450231 -0.001275087807798654 0.0005052134038450231 0.0016197132554099036" pbc="T T T"
Si       4.37162083       1.87846961       5.10591680
Si       0.70833260       2.55271010       0.46997249
Si       3.47310813       5.20853906       2.00500269
Si       1.68487003       0.90271149       2.95155188
Si       3.60362872       5.04531191       9.04504116
Si      -1.95571063       6.53045246       7.68192922
Si       1.28889663       2.99515623       4.03882405
Si       1.42962821       5.39100146       7.20683240
Si      -2.80676602       9.00724772       7.65726595
Si       2.91752034       4.13583145       5.73537890
Si       1.29587702       5.01916004       2.84639998
Si       3.35374922       8.09291074       3.65961525
Si       2.72402405       7.60039046       1.30990537
Si       5.05342951       4.68462472       7.12309050
Si      -0.62948066       5.26735009       1.51415800
Si      -2.53996525       9.04209268      10.17835174
Si      -0.80542665       2.73357761       2.44433732
Si       2.72374892       7.37010298       7.82373344
Si       2.81298611       1.97285914       7.05675841
Si      -0.55161640       4.19820197       5.59277913
Si      -0.01214382       6.95207674       6.21129262
Si       3.27857339       1.19470818       1.14275568
Si       4.64281415       4.08095758       3.91571933
Si       1.42918164       6.87945497       4.26959085
24
Lattice="7.096138992771585 0.58896880153881 -0.38821550488531226 -3.160136906019357 7.116264239820883 1.6694247684939758 -0.6241488481289827 1.7329790274095458 8.3444543343383" Properties=species:S:1:pos:R:3 unique_starting_index=90 config_type=initial n_minim_iter=16 stress="-0.00011917159739879364 -0.00035982776669862745 -5.153559700467992e-05 -0.00035982776669862745 -0.0001999733459672914 -0.00018988192911929876 -5.153559700467992e-05 -0.00018988192911929876 -0.0003597751904436049" pbc="T T T"
Si       4.38211097       1.85231740       5.08689032
Si       0.69428826       2.53805912       0.46439639
Si       3.47033410       5.18389368       2.00727750
Si       1.69588399       0.89817226       2.95242488
Si       3.60318485       5.01333360       9.02919060
Si      -1.96592531       6.51901455       7.65649123
Si       1.29915407       2.98191844       4.03668748
Si       1.42600873       5.37333184       7.18899699
Si      -2.82829322       8.99471466       7.63213356
Si       2.91044324       4.11516554       5.73126969
Si       1.29794844       4.99868230       2.83587574
Si       3.35595748       8.08027921       3.65580360
Si       2.73012346       7.57669425       1.31330043
Si       5.06120907       4.66217894       7.11223051
Si      -0.64285867       5.25400697       1.50079108
Si      -2.54399148       9.01847469      10.14940896
Si      -0.81170527       2.73882187       2.43265647
Si       2.72888603       7.35814967       7.79863915
Si       2.83744915       1.96551227       7.03295908
Si      -0.55879008       4.18721529       5.57679904
Si      -0.01746258       6.95117374       6.18733994
Si       3.28856214       1.18312485       1.14154018
Si       4.64576332       4.05882882       3.91749321
Si       1.41996089       6.85374189       4.26338279
24
Lattice="7.117315944503987 0.584527852444824 -0.36371457110965555 -3.1683027725619017 7.112522111335181 1.6614144773502604 -0.5992718889044286 1.7369638782659558 8.32998316865112" Properties=species:S:1:pos:R:3 unique_starting_index=90 config_type=initial n_minim_iter=17 stress="0.000863574313295461 -0.0006677704414752288 0.0016697866870677375 -0.0006677704414752288 -0.002107201850849122 -0.0009081023381895538 0.0016697866870677375 -0.0009081023381895538 -0.001155099245675516" pbc="T T T"
Si       4.40606839       1.83840561       5.06951478
Si       0.67610278       2.51473988       0.45407171
Si       3.49153964       5.16453166       2.01984210
Si       1.71172695       0.90789635       2.95964281
Si       3.62161035       5.00508267       9.04137480
Si      -1.95944349       6.52134857       7.62744540
Si       1.32747040       2.97858789       4.05772583
Si       1.44580566       5.37106105       7.18833866
Si      -2.82346399       8.99438897       7.61629903
Si       2.90885511       4.10805138       5.74956812
Si       1.31144882       4.98477426       2.83593740
Si       3.37970452       8.09211961       3.67226843
Si       2.77013630       7.56635501       1.34328012
Si       5.08094116       4.66060030       7.12526762
Si      -0.63682860       5.24367271       1.49804381
Si      -2.49633991       9.00484547      10.14069118
Si      -0.81810765       2.76406857       2.41746375
Si       2.77288586       7.38052291       7.78584553
Si       2.89484486       1.98278379       7.01950622
Si      -0.55027997       4.17774959       5.56560333
Si       0.00363272       6.97357351       6.17820901
Si       3.30554769       1.17102110       1.14697796
Si       4.65739115       4.05916600       3.94559707
Si       1.44579913       6.83839934       4.26395911
24
Lattice="7.102823193212806 0.596607095828729 -0.37556452026564185 -3.1534458980484383 7.131027518192492 1.686960126518854 -0.6110622367046832 1.7611535883833367 8.34925650770657" Properties=species:S:1:pos:R:3 unique_starting_index=90 config_type=initial n_minim_iter=18 stress="0.00021744767712346294 0.00037462819970614784 -0.00042123395266404625 0.00037462819970614784 0.000705712129574247 0.00023676697160146418 -0.00042123395266404625 0.00023676697160146418 0.00022240157720412618" pbc="T T T"
Si       4.39205668       1.86555362       5.06741007
Si       0.67326363       2.51418472       0.45103137
Si       3.49694172       5.18362070       2.02400254
Si       1.70504204       0.92021144       2.96260872
Si       3.59759878       5.05315489       9.06482772
Si      -1.96337569       6.55633318       7.64895212
Si       1.32142698       3.00387423       4.07791106
Si       1.44244043       5.40651164       7.21770086
Si      -2.81823378       9.03246051       7.65974313
Si       2.89248240       4.13803458       5.76546094
Si       1.29929246       5.01080869       2.85105251
Si       3.37056795       8.12625501       3.69565921
Si       2.78195472       7.59286378       1.36653789
Si       5.05296688       4.69731575       7.14040643
Si      -0.62091562       5.25693061       1.52004009
Si      -2.48527907       9.05087878      10.18528165
Si      -0.82321029       2.78503982       2.42933099
Si       2.76695101       7.42770512       7.80734818
Si       2.88634451       2.01445279       7.03456863
Si      -0.55479544       4.19639918       5.58304904
Si      -0.00579417       7.01300860       6.19773672
Si       3.30008413       1.17096970       1.14939140
Si       4.63867334       4.09225004       3.96207455
Si       1.45409339       6.86547886       4.27427792
24
Lattice="7.096249361366418 0.5824558671402219 -0.36173463648948573 -3.1614189824310204 7.129044897660034 1.6877020194265389 -0.5971988912305465 1.7660718603708077 8.35931380715467" Properties=species:S:1:pos:R:3 unique_starting_index=90 config_type=initial n_minim_iter=19 stress="-0.0017903060388384765 -0.0009362298658455706 9.399690306467552e-05 -0.0009362298658455706 -0.0005851504773915179 0.00012637105163159346 9.399690306467552e-05 0.00012637105163159346 0.00015779010629801742" pbc="T T T"
Si       4.39336788       1.85088728       5.06878390
Si       0.65263845       2.49277023       0.44102595
Si       3.49155027       5.17073202       2.03852971
Si       1.69580217       0.93087242       2.96103161
Si       3.59222369       5.04450441       9.09167885
Si      -1.95889150       6.55871627       7.64870365
Si       1.32661996       3.00686174       4.10185550
Si       1.44147998       5.41590885       7.24153062
Si      -2.81258646       9.02806436       7.67782168
Si       2.88477796       4.12999503       5.78067950
Si       1.29585887       4.99335869       2.85303241
Si       3.35895451       8.11229032       3.72330989
Si       2.79314855       7.57679589       1.39628445
Si       5.03673440       4.68735822       7.16377813
Si      -0.62659984       5.24085038       1.51975277
Si      -2.45670827       9.04859282      10.19854427
Si      -0.83810470       2.79319162       2.42754141
Si       2.77292680       7.43122452       7.81800605
Si       2.91854491       2.03108325       7.05522614
Si      -0.55891429       4.19587783       5.58647236
Si       0.00076608       7.00350330       6.20773100
Si       3.30312501       1.14901533       1.16241892
Si       4.61850648       4.09933615       3.99454723
Si       1.46144115       6.84649799       4.27419819
24
Lattice="7.1148015968658775 0.59367636162125 -0.3387193136551952 -3.151854304472075 7.113016748922027 1.684167876666739 -0.569102153400424 1.767973824970136 8.367239662587131" Properties=species:S:1:pos:R:3 unique_starting_index=90 config_type=initial n_minim_iter=20 stress="-0.0010698054028797585 -0.00016296272962234025 0.0003988795217512494 -0.00016296272962234025 -0.00029776983776723067 -0.00012664200086378875 0.0003988795217512494 -0.00012664200086378875 -7.739800359373869e-05" pbc="T T T"
Si       4.43050865       1.85799702       5.06025286
Si       0.62467117       2.45627262       0.41116368
Si       3.51683645       5.16991444       2.05916552
Si       1.69124651       0.94974831       2.96053464
Si       3.60708377       5.03697583       9.11764966
Si      -1.92151302       6.55460275       7.64279142
Si       1.34973959       3.02461011       4.13576563
Si       1.48721219       5.44576372       7.28362837
Si      -2.76969553       9.00503194       7.71808278
Si       2.89827965       4.14192635       5.79949698
Si       1.32386415       4.98397405       2.84799392
Si       3.39340009       8.11605537       3.76693740
Si       2.86824796       7.56214026       1.44545749
Si       5.04050851       4.69257519       7.18990533
Si      -0.61231029       5.20080090       1.49695432
Si      -2.36506416       9.03313629      10.19967928
Si      -0.85430597       2.79600272       2.42747106
Si       2.82312137       7.45189462       7.81637702
Si       3.00274330       2.05892674       7.09503678
Si      -0.55075571       4.18495503       5.58642802
Si       0.03237045       6.98775272       6.17070759
Si       3.34368234       1.12959871       1.19537414
Si       4.61195419       4.13905300       4.05525420
Si       1.49625256       6.81222899       4.27672858
24
Lattice="7.135024946787529 0.5862338867197044 -0.34545941955436266 -3.1685498239124477 7.112496687756932 1.6913438177965474 -0.5809687723389904 1.7734208919088112 8.364184891220892" Properties=species:S:1:pos:R:3 unique_starting_index=90 config_type=initial n_minim_iter=21 stress="0.001139673750642801 0.00016089641736718554 -0.0003831037439707723 0.00016089641736718554 0.00021430381589517623 8.237958056235495e-05 -0.0003831037439707723 8.237958056235495e-05 -0.0002710629024702959" pbc="T T T"
Si       4.43722133       1.86279082       5.03970168
Si       0.60945530       2.45084902       0.39869752
Si       3.51977194       5.16216797       2.05866949
Si       1.69486210       0.95605647       2.96274027
Si       3.59132731       5.03225363       9.10474278
Si      -1.92997537       6.55424464       7.64290113
Si       1.34698287       3.02541192       4.13182992
Si       1.48086611       5.45903165       7.29109333
Si      -2.79725715       9.00919565       7.73992709
Si       2.88274033       4.15088915       5.80396218
Si       1.31933806       4.98397658       2.84057396
Si       3.38923799       8.12404046       3.77861999
Si       2.88495490       7.54859973       1.44965670
Si       5.03731136       4.69467180       7.18263128
Si      -0.61152817       5.18592864       1.48582487
Si      -2.37173307       9.03233448      10.19919334
Si      -0.86175586       2.79918486       2.42995504
Si       2.81138887       7.45952458       7.80441791
Si       3.02149017       2.04827345       7.09467723
Si      -0.56562004       4.18215499       5.59218657
Si       0.01434805       6.98475686       6.15172196
Si       3.35731576       1.11949457       1.20305546
Si       4.60651720       4.13331066       4.06314010
Si       1.48879172       6.80223688       4.28263061
