18
Lattice="5.3634472381050875 -3.0392603343769813e-15 3.7677737481365765e-17 -2.681723619052542 4.644881560056493 7.535547496273148e-17 -2.4116970574848733e-19 -6.96196972671273e-19 12.348250486490526" Properties=species:S:1:pos:R:3 unique_starting_index=28 config_type=initial n_minim_iter=13 energy=-2928.686450061237 free_energy=-2928.686450061237 pbc="T T T"
Si      -1.44483240       3.37784419       2.65368688
Si       0.96599145       4.20722103       2.65368688
Si       0.47884094       1.70469791       2.65368688
Si      -0.96599146       4.20722103       8.82781212
Si      -0.47884094       1.70469791       8.82781212
Si       1.44483240       3.37784419       8.82781212
Si      -1.35764158       3.80420085       5.03715689
Si       1.29163174       3.91853324       5.03715689
Si       0.06600984       1.56702904       5.03715689
Si      -1.29163175       3.91853324      11.21128213
Si      -0.06600984       1.56702904      11.21128213
Si       1.35764158       3.80420085      11.21128213
Si       4.10947812       1.37205523       1.01522726
Si       1.81521924       0.39994150       1.01522726
Si       2.12047349       2.87288483       1.01522726
Si       3.54822799       0.39994150       7.18935251
Si       3.24297374       2.87288483       7.18935251
Si       1.25396912       1.37205523       7.18935251
