14
Lattice="5.685750695382026 0.18091160427297245 0.1643558107541685 0.21061666893497535 6.121410416487461 -0.8406611169984627 0.08014055511756428 -3.020087284587433 10.032413213923602" Properties=species:S:1:pos:R:3 unique_starting_index=196 config_type=initial n_minim_iter=1 energy=-2274.0190019070646 free_energy=-2274.0190019070646 pbc="T T T"
Si       2.86941898       0.25872113       9.36687670
Si       5.02251536       2.21569256       6.22044236
Si       2.35839485       1.36939449       7.25817913
Si       1.43580728       3.62954631       1.33931023
Si       1.76293363       4.23096585       3.80034765
Si       5.38880326      -0.30621312       6.58325708
Si       3.61364892       2.00399637       4.37592638
Si       1.88530694      -0.93451414       7.53081361
Si       1.11305604      -1.26391161       9.96834580
Si       1.27784744       2.14193318       4.69467056
Si       0.64356195       4.40662746      -0.88394220
Si       4.95115314      -0.22820396       8.90932767
Si       2.43519983       5.40374755       0.22367735
Si       4.14252774       4.27137141       4.19097123
14
Lattice="5.706645106801831 0.1554298926501361 0.16405102729258433 0.18323511507923415 6.157403048887801 -0.8537660994378056 0.09039692202512582 -3.042261206903608 10.161828437207697" Properties=species:S:1:pos:R:3 unique_starting_index=196 config_type=initial n_minim_iter=2 stress="0.010707590200741218 0.0011244890874301118 0.0011943888868998372 0.0011244890874301118 0.009942105010396302 0.0003048769829953762 0.0011943888868998372 0.0003048769829953762 0.01218582430867087" pbc="T T T"
Si       2.87505957       0.23854842       9.49102647
Si       5.03090730       2.19968348       6.29836882
Si       2.35474880       1.37072460       7.35656535
Si       1.42246287       3.64741459       1.35337564
Si       1.74492174       4.25636566       3.84948108
Si       5.40630569      -0.33742042       6.65596217
Si       3.62006839       1.99085893       4.42760473
Si       1.89574571      -0.96347333       7.62342056
Si       1.12081156      -1.29039397      10.09469673
Si       1.26978637       2.14490600       4.75148176
Si       0.62320715       4.43672348      -0.89916645
Si       4.97221746      -0.25739526       9.01597313
Si       2.41741694       5.43348798       0.22311768
Si       4.13862686       4.28347034       4.25140557
14
Lattice="5.611265856331685 0.06614663221309253 0.14106825037748633 0.08911676749001728 6.103903019838035 -0.8689464402761322 0.09430731310395718 -3.0354587066117205 10.210275879402005" Properties=species:S:1:pos:R:3 unique_starting_index=196 config_type=initial n_minim_iter=3 stress="0.001488671909239761 -0.0040110601305413844 0.00018533686341755314 -0.0040110601305413844 0.0026983116302945736 0.0005124072594203262 0.00018533686341755314 0.0005124072594203262 0.009344016060829274" pbc="T T T"
Si       2.78358284       0.16197727       9.53650430
Si       4.89684148       2.08032497       6.30421074
Si       2.25422668       1.33047497       7.40043666
Si       1.33403502       3.60280865       1.34139970
Si       1.62420463       4.21700810       3.86074289
Si       5.29140955      -0.43450170       6.63437301
Si       3.52487678       1.89033122       4.42258650
Si       1.85563285      -1.03405585       7.63993891
Si       1.08718276      -1.34389135      10.13091788
Si       1.19429998       2.09296710       4.75698797
Si       0.54089653       4.41092322      -0.91973936
Si       4.87494156      -0.35176031       9.01650068
Si       2.28725491       5.37551935       0.20220947
Si       3.99302448       4.19888760       4.27801336
14
Lattice="5.558145015029166 0.07241095899516328 0.1068477190359163 0.10038072553400777 6.077267477296254 -0.8890195235614051 0.036342005981278756 -3.077554750391976 10.032013182385656" Properties=species:S:1:pos:R:3 unique_starting_index=196 config_type=initial n_minim_iter=4 stress="-0.007500723557644741 -0.0040396333976410554 -0.002914995050253366 -0.0040396333976410554 0.004371232094358212 -0.002022690443145938 -0.002914995050253366 -0.002022690443145938 -0.004079644140294108" pbc="T T T"
Si       2.70557623       0.09071903       9.36882795
Si       4.83577269       2.01404717       6.15264022
Si       2.17258821       1.32306123       7.28909158
Si       1.30983625       3.59675601       1.27702086
Si       1.56814829       4.23719486       3.76887084
Si       5.19789963      -0.47291582       6.42911402
Si       3.49667998       1.81859592       4.29535126
Si       1.81240302      -1.14392457       7.46953755
Si       1.02835943      -1.45380732       9.92923135
Si       1.15635801       2.04644382       4.63467206
Si       0.52807303       4.43793110      -0.94533865
Si       4.81028915      -0.41011495       8.77952433
Si       2.26695336       5.40167993       0.14790542
Si       3.94525464       4.20127538       4.21447044
14
Lattice="5.633343811457656 0.13963282131023674 0.15941681580637126 0.17544500930391077 5.7963271208113065 -0.8454159569277997 0.08929751142099009 -2.874523369803463 9.986885164859105" Properties=species:S:1:pos:R:3 unique_starting_index=196 config_type=initial n_minim_iter=5 stress="-0.007430346690898463 -0.005123268252224874 0.00013097853635064423 -0.005123268252224874 -0.012955191502528576 -0.0010064655646480373 0.00013097853635064423 -0.0010064655646480373 -0.0064724551840446365" pbc="T T T"
Si       2.83339738       0.16331902       9.40144814
Si       5.00115080       1.99552235       6.20898636
Si       2.26650713       1.36963568       7.35206986
Si       1.37518616       3.47638865       1.30092747
Si       1.65407671       4.14527501       3.81965192
Si       5.31788623      -0.35174796       6.40997769
Si       3.63301060       1.76969164       4.31366236
Si       1.91026806      -1.09360501       7.44021668
Si       1.11875520      -1.36888421       9.89415138
Si       1.24128105       1.99315185       4.63201530
Si       0.55560104       4.28045368      -0.92106339
Si       4.97616283      -0.29512513       8.76150012
Si       2.37514758       5.23162288       0.19866786
Si       4.09043156       4.11816969       4.33522974
14
Lattice="5.645201948873499 0.24413029036602962 0.1669046150276685 0.286346055486381 5.776609068712699 -0.7913488736484161 0.0458710878467299 -2.781173491899818 9.929103683984135" Properties=species:S:1:pos:R:3 unique_starting_index=196 config_type=initial n_minim_iter=6 stress="-0.004712098848119984 0.0012591304503944284 0.00017577920369047498 0.0012591304503944284 -0.004152278119591564 0.0007881847136826214 0.00017577920369047498 0.0007881847136826214 -0.0033283603709288773" pbc="T T T"
Si       2.86295032       0.28331673       9.38571551
Si       5.05839976       2.12866672       6.21724293
Si       2.30174298       1.48491836       7.36193318
Si       1.43376179       3.51267631       1.32866707
Si       1.73181686       4.22591230       3.85283367
Si       5.33784580      -0.20288515       6.37546435
Si       3.68938149       1.85063530       4.31231394
Si       1.91498721      -1.02587497       7.40160809
Si       1.10323479      -1.28631391       9.84283770
Si       1.29174091       2.04939497       4.62757936
Si       0.61330907       4.29707494      -0.87788794
Si       4.99776017      -0.14397566       8.71831217
Si       2.48734386       5.28553467       0.24188409
Si       4.16182330       4.22426748       4.39090919
14
Lattice="5.7762433491924705 0.33475458076356146 0.1685452221894773 0.39012347546282 5.684002785723352 -0.744683062473394 0.003240277699587711 -2.6757454137001533 9.786624438579587" Properties=species:S:1:pos:R:3 unique_starting_index=196 config_type=initial n_minim_iter=7 stress="0.009112381333478517 0.006777646389315765 -0.0016398460040596692 0.006777646389315765 0.006205839468150124 0.003235824860498923 -0.0016398460040596692 0.003235824860498923 0.006759881686825604" pbc="T T T"
Si       2.97005239       0.34758429       9.29786840
Si       5.21231865       2.21627759       6.16611918
Si       2.37993735       1.58630566       7.31915991
Si       1.48663063       3.51230054       1.33442563
Si       1.82311083       4.29035314       3.84923718
Si       5.49408803      -0.08991342       6.25106811
Si       3.83682071       1.86140475       4.25207558
Si       1.98965698      -1.01857956       7.28605009
Si       1.10737107      -1.25018478       9.68857032
Si       1.37379692       2.06857736       4.55964839
Si       0.61588987       4.30868048      -0.82435188
Si       5.13324047      -0.04513341       8.56146885
Si       2.65655946       5.29729142       0.25759782
Si       4.25816105       4.25970835       4.44434039
14
Lattice="5.826503888939467 0.3655922703405517 0.2265988901881163 0.4185460367503106 5.625208334435482 -0.7472056312000268 0.09369249211583283 -2.67174364752603 9.654600340798488" Properties=species:S:1:pos:R:3 unique_starting_index=196 config_type=initial n_minim_iter=8 stress="0.010000523537364884 0.010406661190835553 0.0025430124172061736 0.010406661190835553 0.01057746437602771 0.004545974147865625 0.0025430124172061736 0.004545974147865625 0.010168072270820465" pbc="T T T"
Si       3.13586966       0.30211465       9.21995934
Si       5.33630446       2.21429703       6.13847444
Si       2.48809866       1.60474454       7.26873198
Si       1.49396841       3.50106101       1.32104559
Si       1.88997790       4.31822257       3.81312434
Si       5.64273656      -0.09091869       6.17739282
Si       3.95126555       1.80823890       4.20751638
Si       2.12651235      -1.09374161       7.19040604
Si       1.20964672      -1.31184037       9.54282113
Si       1.46497024       2.04489368       4.48369458
Si       0.55375907       4.34107229      -0.80529086
Si       5.28602310      -0.07406135       8.45263867
Si       2.73834072       5.30074320       0.25201019
Si       4.29075777       4.23015234       4.48873946
14
Lattice="5.902983873565883 0.30208698243022813 0.21265020004021437 0.35749129783581346 5.608284207456524 -0.8123329584443647 0.11187481185095953 -2.791401957166955 9.510091165136801" Properties=species:S:1:pos:R:3 unique_starting_index=196 config_type=initial n_minim_iter=9 stress="0.014200940584221798 0.010694454189906048 0.004010813252082957 0.010694454189906048 0.017280133364721936 0.004708576381998752 0.004010813252082957 0.004708576381998752 0.01229670525246799" pbc="T T T"
Si       3.20854852       0.11239081       9.05195361
Si       5.36983596       2.09059264       5.99953046
Si       2.50065686       1.50855329       7.12518206
Si       1.42564104       3.47293645       1.25170592
Si       1.85951615       4.28812500       3.67712768
Si       5.75053206      -0.24877831       6.02985675
Si       3.99670621       1.66797028       4.08325982
Si       2.21082649      -1.26846966       7.05943485
Si       1.21603047      -1.48629627       9.35768532
Si       1.47951174       1.96858384       4.35595861
Si       0.42135908       4.39872694      -0.83176401
Si       5.35892526      -0.27842194       8.26654374
Si       2.74674588       5.27746435       0.15836345
Si       4.20085369       4.09857263       4.40213190
14
Lattice="5.90377008315541 0.13227309899000167 0.1430019132064557 0.18936101660731003 5.616164399293921 -0.9721267261284737 0.08827388633356485 -3.060962969393017 9.492635488307618" Properties=species:S:1:pos:R:3 unique_starting_index=196 config_type=initial n_minim_iter=10 stress="0.016052402279333924 0.006071490010246055 -0.0006855000490110002 0.006071490010246055 0.02130767097174019 0.0017161363784666509 -0.0006855000490110002 0.0017161363784666509 0.012973241661676684" pbc="T T T"
Si       3.14701764      -0.25149065       8.91521786
Si       5.23616032       1.80403413       5.83198458
Si       2.39008176       1.24952670       6.97646745
Si       1.26842007       3.40465618       1.13260948
Si       1.71036257       4.14375512       3.46833589
Si       5.71935723      -0.58942798       5.91547438
Si       3.90078985       1.42595982       3.94103444
Si       2.20870197      -1.54514317       7.00836055
Si       1.13698404      -1.78998569       9.27763190
Si       1.39550375       1.81035705       4.23953501
Si       0.23246320       4.44899235      -0.93618884
Si       5.27920210      -0.68807393       8.14589631
Si       2.61607243       5.18834193      -0.03253858
Si       3.95146261       3.83032651       4.21390886
14
Lattice="5.8575746385161205 0.028031156559127603 0.14096988781146233 0.08071077395530095 5.542893516589933 -1.0640933712071134 0.14301323535955235 -3.1782465789307004 9.496986974384997" Properties=species:S:1:pos:R:3 unique_starting_index=196 config_type=initial n_minim_iter=11 stress="0.005410858708022992 0.0015772335829208285 -0.003096264455329693 0.0015772335829208285 0.00820782645400647 -0.0021911275525572436 -0.003096264455329693 -0.0021911275525572436 0.0039078362528103695" pbc="T T T"
Si       3.14661887      -0.46253156       8.86996489
Si       5.16370329       1.60219386       5.78297483
Si       2.35274742       1.07953803       6.92478451
Si       1.17287134       3.32175740       1.06955873
Si       1.63241503       4.00043713       3.35533025
Si       5.68744845      -0.78164668       5.88823432
Si       3.83716405       1.25925389       3.88593820
Si       2.23481976      -1.69163157       7.00745777
Si       1.14554763      -1.95164118       9.25402023
Si       1.36375619       1.68767672       4.19138312
Si       0.12080684       4.41973021      -0.99923165
Si       5.25567603      -0.92592260       8.12569679
Si       2.51465294       5.06501712      -0.12548783
Si       3.81426525       3.62388613       4.13830759
14
Lattice="5.77201163350969 -0.09183350108022947 0.23019484731196524 -0.06417050610242946 5.523051359813154 -1.0605717300218906 0.361911172899607 -3.1687910628678146 9.521182110592711" Properties=species:S:1:pos:R:3 unique_starting_index=196 config_type=initial n_minim_iter=12 stress="-0.007591908685548158 -0.00408203704743682 -0.0028032906955405136 -0.00408203704743682 -0.005307811030124253 -0.002228124178666502 -0.0028032906955405136 -0.002228124178666502 -0.0012696220702359472" pbc="T T T"
Si       3.23729575      -0.49982786       8.91595925
Si       5.14414816       1.50690444       5.88670094
Si       2.41574229       1.00752104       6.96491876
Si       1.10145502       3.28690075       1.08685664
Si       1.60177006       3.90815486       3.35019220
Si       5.68657039      -0.88237552       6.01120861
Si       3.77558165       1.19838737       3.95126714
Si       2.31895564      -1.67922788       7.08193867
Si       1.29861375      -1.93462146       9.29947178
Si       1.37326727       1.65247969       4.24880801
Si       0.04590799       4.37869860      -0.98756425
Si       5.32165390      -1.02980176       8.26526690
Si       2.36367040       4.95725989      -0.07278474
Si       3.75804834       3.51813604       4.16039504
14
Lattice="5.822129527635161 -0.1145201209161535 0.28883436999416223 -0.09424854919737494 5.454097536519425 -1.0248176699334022 0.4797083038911077 -3.0986859946300895 9.389638421665932" Properties=species:S:1:pos:R:3 unique_starting_index=196 config_type=initial n_minim_iter=13 stress="-0.006808841771767369 -0.004431471508957813 0.0013077906088788643 -0.004431471508957813 -0.012535501293785695 0.0012356314047153362 0.0013077906088788643 0.0012356314047153362 -0.009721968347433574" pbc="T T T"
Si       3.37228146      -0.47990281       8.83822773
Si       5.25286473       1.48915691       5.88822413
Si       2.51304136       1.02066902       6.92766631
Si       1.09000736       3.26477626       1.08918919
Si       1.64076157       3.88569316       3.31755892
Si       5.80196625      -0.87403357       5.97087029
Si       3.84492187       1.16241286       3.93462548
Si       2.43065236      -1.66383464       7.01301722
Si       1.40158554      -1.90465020       9.18081403
Si       1.43422099       1.63909269       4.22157504
Si       0.00607324       4.35617510      -0.95113093
Si       5.48063723      -1.03511204       8.21238129
Si       2.38016269       4.89634359      -0.03125310
Si       3.80235813       3.47820893       4.17864233
14
Lattice="5.833619754373638 -0.09048591664803815 0.3563629271569658 -0.07679265550331132 5.470506915579539 -1.0822776247173682 0.5876660594761333 -3.1963670436612746 9.448416867008229" Properties=species:S:1:pos:R:3 unique_starting_index=196 config_type=initial n_minim_iter=14 stress="-0.0029675793763529155 0.0014131650825152048 0.0022136413989468006 0.0014131650825152048 -0.0044822829141112925 0.0009960518547958356 0.0022136413989468006 0.0009960518547958356 -0.004134579108936973" pbc="T T T"
Si       3.49445895      -0.54079598       8.89854694
Si       5.35307700       1.45709812       5.98109709
Si       2.64050327       0.95770001       6.99708690
Si       1.08043758       3.29141253       1.04485477
Si       1.72215516       3.87173826       3.24016775
Si       5.87980661      -0.89814524       6.02117091
Si       3.88755081       1.11333809       3.96213551
Si       2.51059485      -1.71896090       7.09161900
Si       1.46525240      -2.01008034       9.24425175
Si       1.51599448       1.59361057       4.26298902
Si       0.03441566       4.41274851      -0.97832783
Si       5.63259770      -1.14230449       8.33151628
Si       2.44370965       4.90565089      -0.06343044
Si       3.86141505       3.45745103       4.18717762
14
Lattice="5.848735244873972 -0.12633944282613188 0.36820829765503743 -0.11711771232889884 5.510802378650437 -1.108198300793216 0.6287861125625063 -3.256196891631686 9.481000668892197" Properties=species:S:1:pos:R:3 unique_starting_index=196 config_type=initial n_minim_iter=15 stress="0.0027069059867628714 0.0005025931602299393 -0.00019361762515870233 0.0005025931602299393 0.0017604556094743063 0.0002226223993165649 -0.00019361762515870233 0.0002226223993165649 -0.0001615973975411629" pbc="T T T"
Si       3.51990594      -0.58755374       8.91789714
Si       5.36440276       1.41361934       6.00741483
Si       2.66830692       0.91014411       7.01751781
Si       1.04631385       3.31193308       1.02088504
Si       1.71401411       3.86275445       3.20327907
Si       5.90354913      -0.95371288       6.04277593
Si       3.88511993       1.07701375       3.97287776
Si       2.52609941      -1.75102019       7.12663684
Si       1.48170518      -2.06285431       9.28544087
Si       1.51811144       1.57663117       4.28502657
Si       0.02617321       4.44526162      -0.98918073
Si       5.67480491      -1.22305607       8.36888156
Si       2.42884072       4.91597129      -0.08065230
Si       3.85820757       3.44016115       4.16457502
14
Lattice="5.790440257955792 -0.18354184498298468 0.41665402937437 -0.18672493985892394 5.534789032979437 -1.1795912198623464 0.7425348404792614 -3.3669640742007925 9.64773778375885" Properties=species:S:1:pos:R:3 unique_starting_index=196 config_type=initial n_minim_iter=16 stress="0.0025960680269574653 0.0003600099119670691 -0.0004380409684518704 0.0003600099119670691 0.00815710636183296 -0.0013899815800125937 -0.0004380409684518704 -0.0013899815800125937 0.007929016777416708" pbc="T T T"
Si       3.58173172      -0.70313006       9.07156161
Si       5.33359289       1.30058356       6.14493304
Si       2.73117394       0.79203677       7.14957539
Si       0.94955801       3.33018243       0.96799765
Si       1.69388588       3.81032590       3.15528709
Si       5.89033169      -1.05817010       6.15366282
Si       3.85627417       0.96985869       4.05414779
Si       2.55311111      -1.82698811       7.27217021
Si       1.52802180      -2.18583461       9.48037949
Si       1.52801076       1.52043703       4.38238430
Si       0.01385120       4.47627714      -1.01958490
Si       5.70527932      -1.38351967       8.51917530
Si       2.39608020       4.91251694      -0.11415010
Si       3.81215795       3.37225905       4.17416381
14
Lattice="5.81650540328763 -0.2206160414866924 0.40960243390504725 -0.22231737487477846 5.467348886161256 -1.1854212489456222 0.7503610860517355 -3.3478606998225082 9.6194915161471" Properties=species:S:1:pos:R:3 unique_starting_index=196 config_type=initial n_minim_iter=17 stress="0.007756452478362919 0.0010765662523549145 -0.003867774779036511 0.0010765662523549145 0.0032577362277057494 0.0001714498764284376 -0.003867774779036511 0.0001714498764284376 0.0040486802923369375" pbc="T T T"
Si       3.61501561      -0.74381907       9.04669058
Si       5.30423661       1.23796955       6.13444452
Si       2.76943584       0.72602961       7.13193843
Si       0.86738000       3.30512709       0.92522490
Si       1.67614294       3.73370301       3.09399336
Si       5.91945219      -1.09158777       6.12125470
Si       3.86727595       0.88988463       4.06036556
Si       2.54406208      -1.82252219       7.25182486
Si       1.49596561      -2.18170877       9.48139621
Si       1.52064173       1.49532532       4.39737521
Si       0.01367000       4.41670344      -0.99193794
Si       5.70618713      -1.42411051       8.43308861
Si       2.43654903       4.85896121      -0.11952877
Si       3.77619120       3.28961181       4.10919887
14
Lattice="5.74448473619924 -0.28771310181038967 0.46981373997912407 -0.3046581398411688 5.438693442140618 -1.204657178412196 0.8920993073348588 -3.371735945412699 9.615615924063839" Properties=species:S:1:pos:R:3 unique_starting_index=196 config_type=initial n_minim_iter=18 stress="-0.0024843561800647995 0.0005488449665505789 0.0019409546089761952 0.0005488449665505789 0.00017468590982370504 0.00037515263005548886 0.0019409546089761952 0.00037515263005548886 -0.006192387239800855" pbc="T T T"
Si       3.69878937      -0.83333959       9.08725880
Si       5.24545222       1.14700013       6.17805435
Si       2.83771202       0.64755263       7.14863920
Si       0.77491185       3.29008448       0.90014787
Si       1.62810982       3.67857451       3.06962696
Si       5.93525975      -1.17797293       6.16138197
Si       3.86836953       0.78877140       4.12037677
Si       2.60451834      -1.87585471       7.26007241
Si       1.58301234      -2.20625919       9.49479967
Si       1.52947082       1.47130374       4.42209576
Si      -0.03978179       4.37938689      -0.98209817
Si       5.72764309      -1.51456443       8.41102246
Si       2.39709278       4.83635635      -0.09893338
Si       3.70851566       3.20457969       4.10235287
14
Lattice="5.6938689459782585 -0.2953344024207109 0.426732318189609 -0.30473576977351474 5.3362675581711105 -1.2175885525571912 0.8133210657550255 -3.3187345822562757 9.768180475293468" Properties=species:S:1:pos:R:3 unique_starting_index=196 config_type=initial n_minim_iter=19 stress="-0.0062299957978789655 -0.0002852689577249408 -0.0010559004471262037 -0.0002852689577249408 -0.009160199760962872 0.001299723107863968 -0.0010559004471262037 0.001299723107863968 -0.0026244864233406517" pbc="T T T"
Si       3.57621483      -0.84712847       9.23928557
Si       5.11789429       1.10487474       6.23353041
Si       2.76133779       0.63020464       7.25709670
Si       0.75357235       3.22745168       0.92816789
Si       1.54721844       3.62692920       3.12727615
Si       5.85986111      -1.17969485       6.18101678
Si       3.82436664       0.73641864       4.17928187
Si       2.54062695      -1.89358192       7.34439816
Si       1.48173981      -2.15913810       9.60987728
Si       1.47287210       1.45253882       4.48455733
Si      -0.05240845       4.29606145      -1.00310416
Si       5.64420246      -1.52838022       8.46612424
Si       2.39207518       4.77283433      -0.10734625
Si       3.63019699       3.13111814       4.15935567
14
Lattice="5.699804203749325 -0.38693460062408824 0.5106405457711612 -0.4134227924860824 5.354395111936299 -1.3108185839959503 1.0110870724709926 -3.4703955223515224 9.901472225233956" Properties=species:S:1:pos:R:3 unique_starting_index=196 config_type=initial n_minim_iter=20 stress="-0.002171234132372292 0.00048097730114827515 0.002440061199852986 0.00048097730114827515 -0.0034101028987187716 -0.002689759481326158 0.002440061199852986 -0.002689759481326158 8.700092388460763e-05" pbc="T T T"
Si       3.71342400      -1.02965556       9.38061599
Si       5.13294088       0.94773322       6.35265753
Si       2.91187520       0.45601650       7.36009104
Si       0.66707439       3.22989527       0.88254287
Si       1.52617750       3.54637332       3.05976446
Si       5.98414534      -1.34660640       6.29623041
Si       3.86361005       0.58164103       4.28127257
Si       2.66187932      -2.02728322       7.47106931
Si       1.59071820      -2.27599547       9.72335309
Si       1.51637754       1.38299759       4.56465036
Si      -0.10012326       4.29859311      -1.04835141
Si       5.81262246      -1.77622687       8.60008895
Si       2.37861972       4.74339290      -0.13349405
Si       3.60680204       2.99871140       4.14255626
14
Lattice="5.708194251351225 -0.40817615732172846 0.49259591928701796 -0.4351541067124116 5.37980228026709 -1.275099757463654 0.9903706221903694 -3.428912117530408 9.865430490408846" Properties=species:S:1:pos:R:3 unique_starting_index=196 config_type=initial n_minim_iter=21 stress="0.00046368211149370287 2.509528863841187e-05 -0.0003800388452102336 2.509528863841187e-05 0.0029588204916554364 0.0008350969819034182 -0.0003800388452102336 0.0008350969819034182 -7.174620603800118e-05" pbc="T T T"
Si       3.68364114      -0.98839924       9.35565851
Si       5.09969226       0.97774445       6.33750850
Si       2.89096774       0.49556531       7.35293748
Si       0.65360846       3.25896452       0.90625814
Si       1.50037431       3.58201619       3.07435341
Si       5.97757930      -1.33314847       6.26276830
Si       3.84501634       0.59594723       4.27236562
Si       2.65093224      -2.00445387       7.44382921
Si       1.55674971      -2.22328427       9.68104089
Si       1.49125158       1.42150283       4.56768846
Si      -0.10925118       4.31602215      -1.02225265
Si       5.79629072      -1.75910777       8.55708194
Si       2.36223380       4.76150258      -0.10851387
Si       3.57981378       3.02764565       4.14251720
