18
Lattice="6.710552810712249 1.4670778838312333 0.3527917448066458 -1.962753733117776 6.582661644480673 -0.3527917448066417 -2.8066763796295904 -3.769614612299014 7.075939041060772" Properties=species:S:1:pos:R:3 unique_starting_index=64 config_type=initial n_minim_iter=1 energy=-2931.9275747043994 free_energy=-2931.9275747043994 pbc="T T T"
Si       0.85826572       3.33131231       4.87330511
Si       2.25840184       0.25546709       1.51173146
Si      -1.15076240      -0.47478168       2.06910026
Si       1.81069118       0.08555055       5.78346566
Si       3.63051858      -1.07349674       4.92174728
Si       5.49186503       6.54307223       1.20738188
Si      -2.23718905       2.66430868       3.27221419
Si       1.34450205       3.28721927      -0.08935945
Si      -0.59082213       2.84190834       1.41766764
Si      -0.82106016      -2.00916916       5.13203304
Si      -1.84050861       1.31241193       5.31979809
Si       2.71956044       3.59413065       1.95822444
Si       2.03932061       5.85192056       2.31795391
Si      -4.14556720       0.81537429       5.67952756
Si       4.60230828       2.67115112       0.85124428
Si      -0.12183711       0.11124629       4.21281793
Si      -1.23959049       3.46404266       6.19233325
Si       1.12725763       2.02722634       2.83075961
18
Lattice="6.709745599973117 1.4770987806858953 0.3532728913823914 -1.9535932204543598 6.586803500428498 -0.3532728913823873 -2.809482511555487 -3.7775043315035535 7.071122468550698" Properties=species:S:1:pos:R:3 unique_starting_index=64 config_type=initial n_minim_iter=2 stress="-0.00017567599511921335 0.00035113847272931714 1.6122888421986821e-06 0.00035113847272931714 0.00021256370363135146 -9.509405181698015e-07 1.6122888421986821e-06 -9.509405181698015e-07 -0.00030546314683084854" pbc="T T T"
Si       0.86309038       3.33567879       4.86993502
Si       2.25791416       0.25808743       1.51101023
Si      -1.15018228      -0.47685809       2.06754742
Si       1.81098238       0.08711304       5.77974510
Si       3.62792515      -1.07000193       4.91876591
Si       5.49771170       6.55674823       1.20656823
Si      -2.23248417       2.66415226       3.26973822
Si       1.34791472       3.29213270      -0.08918657
Si      -0.58666189       2.84365816       1.41637964
Si      -0.82238542      -2.01259108       5.12857732
Si      -1.83724334       1.31085533       5.31590683
Si       2.72350199       3.60098142       1.95698204
Si       2.04602427       5.86021299       2.31644120
Si      -4.14222726       0.81070287       5.67536599
Si       4.60410725       2.67978508       0.85088255
Si      -0.12116906       0.11070207       4.20980734
Si      -1.23401721       3.46586361       6.18783047
Si       1.12935991       2.03042308       2.82890568
18
Lattice="6.716181598647079 1.4751033488731453 0.3563651200815256 -1.9584534175042292 6.59147065284587 -0.35636512008152144 -2.807894764650864 -3.7802413673343667 7.0844432182224715" Properties=species:S:1:pos:R:3 unique_starting_index=64 config_type=initial n_minim_iter=3 stress="0.001586827524800618 6.660155289731714e-05 0.00035605300671488527 6.660155289731714e-05 0.001660466185446371 -0.00021000283685074727 0.00035605300671488527 -0.00021000283685074727 0.001377613296090174" pbc="T T T"
Si       0.86879268       3.34098204       4.87879320
Si       2.25845593       0.25090194       1.51475415
Si      -1.14576747      -0.47735006       2.07088167
Si       1.81756078       0.08112113       5.79128584
Si       3.62993013      -1.07090047       4.92764443
Si       5.49703205       6.56046622       1.20724026
Si      -2.23483455       2.66928127       3.27691878
Si       1.34471294       3.29207896      -0.08712027
Si      -0.58707188       2.84176543       1.41678105
Si      -0.81691545      -2.01368277       5.13718522
Si      -1.83527818       1.31003813       5.32555806
Si       2.72759209       3.60002775       1.96151901
Si       2.04522499       5.86237237       2.32273401
Si      -4.14535211       0.81265854       5.68677306
Si       4.61095279       2.68105423       0.85155929
Si      -0.11981610       0.10639794       4.21559834
Si      -1.23547524       3.47094635       6.19908658
Si       1.12663037       2.02961078       2.83504753
18
Lattice="6.7084728108190514 1.4716044274230673 0.3551672023539781 -1.9577859031964713 6.583031323148534 -0.3551672023539739 -2.805183632569466 -3.7737947895954678 7.0807538991449785" Properties=species:S:1:pos:R:3 unique_starting_index=64 config_type=initial n_minim_iter=4 stress="-7.17068041498957e-05 -1.7074737687224605e-05 0.000198185674685412 -1.7074737687224605e-05 -9.058565546122523e-05 -0.00011689145470527089 0.000198185674685412 -0.00011689145470527089 -2.96498681622092e-05" pbc="T T T"
Si       0.86803623       3.33883810       4.87638122
Si       2.25475629       0.24762850       1.51358787
Si      -1.14299828      -0.47632074       2.06983475
Si       1.81550091       0.07967345       5.78779530
Si       3.62379783      -1.06871242       4.92324956
Si       5.48760777       6.55136232       1.20528901
Si      -2.23371615       2.66802199       3.27690782
Si       1.34114617       3.28673669      -0.08588553
Si      -0.58703892       2.83686201       1.41580581
Si      -0.81510702      -2.00986542       5.13376636
Si      -1.83355343       1.30881618       5.32342001
Si       2.72428601       3.59413675       1.96062666
Si       2.04067499       5.85438106       2.32271032
Si      -4.14239107       0.81354141       5.68550367
Si       4.60636776       2.67723089       0.84965436
Si      -0.12051967       0.10529492       4.21244770
Si      -1.23655774       3.46893690       6.19665626
Si       1.12265528       2.02655760       2.83386291
18
Lattice="6.708943173589808 1.472084088991104 0.34941751917228636 -1.95759368919758 6.583675039028866 -0.34941751917228225 -2.812552739872686 -3.770205517900187 7.081809308107638" Properties=species:S:1:pos:R:3 unique_starting_index=64 config_type=initial n_minim_iter=5 stress="0.00018580965485722465 -7.368176395705152e-06 -0.000673120961417129 -7.368176395705152e-06 0.00017766295830638732 0.00039701198634889173 -0.000673120961417129 0.00039701198634889173 -8.33360202167157e-05" pbc="T T T"
Si       0.86407017       3.34273930       4.87785898
Si       2.25334297       0.24765718       1.51166308
Si      -1.14538191      -0.47504545       2.07091265
Si       1.80978220       0.08317698       5.78652607
Si       3.61990900      -1.06477198       4.91863767
Si       5.48638969       6.55194815       1.20302425
Si      -2.23714457       2.67098412       3.28163514
Si       1.34081480       3.28674919      -0.08456075
Si      -0.58855675       2.83798167       1.41771187
Si      -0.82027064      -2.00704431       5.13332529
Si      -1.83836893       1.31189523       5.32666017
Si       2.72318122       3.59530661       1.96046427
Si       2.03865674       5.85668856       2.32435638
Si      -4.14864414       0.81686948       5.69055227
Si       4.60653476       2.67817597       0.84620888
Si      -0.12452314       0.10736969       4.21240477
Si      -1.24276929       3.47387115       6.20072674
Si       1.11925145       2.02805167       2.83453085
18
Lattice="6.70315545517892 1.4715965304384673 0.3572302971569373 -1.9552201763265447 6.5783739226938875 -0.3572302971569332 -2.801444758942464 -3.772855891623872 7.089498017444211" Properties=species:S:1:pos:R:3 unique_starting_index=64 config_type=initial n_minim_iter=6 stress="-0.0002049354601719455 9.078194281123974e-07 0.0002805853168363891 9.078194281123974e-07 -0.0002039317207119878 -0.00016549140550148933 0.0002805853168363891 -0.00016549140550148933 -7.77771055792983e-05" pbc="T T T"
Si       0.87292002       3.33956443       4.88225891
Si       2.25195539       0.24252955       1.51612505
Si      -1.14400082      -0.47574376       2.07263663
Si       1.81372167       0.08073718       5.79600079
Si       3.62692085      -1.05974912       4.92578836
Si       5.47931197       6.53916173       1.20242420
Si      -2.22988431       2.67021230       3.28497697
Si       1.33655508       3.28185008      -0.08115689
Si      -0.58677551       2.83512218       1.41397234
Si      -0.81424616      -2.00878868       5.13733650
Si      -1.82572225       1.30575741       5.33160582
Si       2.72622371       3.58828965       1.96547196
Si       2.04099045       5.85122552       2.32531795
Si      -4.13770033       0.81060013       5.69145181
Si       4.60512426       2.67592299       0.84840760
Si      -0.11820019       0.10282408       4.21454146
Si      -1.23244257       3.47072310       6.20673215
Si       1.11855494       2.02161854       2.84059829
18
Lattice="6.703417791260964 1.4727758234316537 0.3528461492896876 -1.954315019981739 6.579174075288821 -0.3528461492896836 -2.8075343179803163 -3.770598243126317 7.0933201751821375" Properties=species:S:1:pos:R:3 unique_starting_index=64 config_type=initial n_minim_iter=7 stress="0.0002778186050890164 2.4792651757027558e-05 -0.00045391212321930444 2.4792651757027558e-05 0.0003052308438402843 0.0002677209060430826 -0.00045391212321930444 0.0002677209060430826 0.0003244365875137973" pbc="T T T"
Si       0.87104412       3.34544805       4.88484990
Si       2.24907458       0.24078549       1.51461289
Si      -1.14738314      -0.47416770       2.07392264
Si       1.80779231       0.08465323       5.79700580
Si       3.62476869      -1.05334512       4.92337672
Si       5.47674724       6.53820784       1.20029355
Si      -2.23141765       2.67335882       3.29207685
Si       1.33623543       3.28113048      -0.07816017
Si      -0.58837222       2.83527233       1.41612020
Si      -0.81806371      -2.00574546       5.13920336
Si      -1.82732730       1.30811993       5.33833482
Si       2.72655550       3.58801213       1.96809780
Si       2.04034179       5.85278048       2.32570595
Si      -4.14138347       0.81293412       5.69594297
Si       4.60534507       2.67642308       0.84459261
Si      -0.12053947       0.10490749       4.21482963
Si      -1.23636211       3.47662386       6.21387000
Si       1.11467038       2.02165473       2.84363299
18
Lattice="6.708391427782478 1.4701150533394776 0.3547665723114938 -1.9590499811372175 6.5822395117320776 -0.3547665723114899 -2.8048554293538954 -3.772450991976067 7.077449024812884" Properties=species:S:1:pos:R:3 unique_starting_index=64 config_type=initial n_minim_iter=8 stress="0.0007450832750972643 -0.0002756387583345545 -0.0001640780456256559 -0.0002756387583345545 0.0004403205765859462 9.677450940330837e-05 -0.0001640780456256559 9.677450940330837e-05 -0.000851536116191796" pbc="T T T"
Si       0.87366528       3.35054934       4.87172861
Si       2.24702564       0.23561943       1.51038739
Si      -1.14996753      -0.47290280       2.06736630
Si       1.80926119       0.08404626       5.78347410
Si       3.63095565      -1.05186525       4.91378931
Si       5.47485789       6.53473864       1.19768151
Si      -2.23098774       2.67442321       3.28660438
Si       1.33665929       3.27983526      -0.07473684
Si      -0.59110920       2.83275647       1.41345105
Si      -0.81335984      -2.00438969       5.12955885
Si      -1.82295842       1.30843451       5.33014555
Si       2.72954131       3.58363241       1.96880432
Si       2.04108821       5.84997760       2.31494487
Si      -4.13947804       0.81444565       5.67628609
Si       4.60717959       2.67251773       0.84124804
Si      -0.11714276       0.10600015       4.20258927
Si      -1.23478242       3.47957903       6.20097396
Si       1.11399577       2.01843845       2.83963273
18
Lattice="6.702098426650766 1.4725291427631018 0.3564691677533179 -1.953892573262143 6.577900060730041 -0.35646916775331405 -2.8020689576548192 -3.772796903026061 7.08430407575783" Properties=species:S:1:pos:R:3 unique_starting_index=64 config_type=initial n_minim_iter=9 stress="-6.541999037922036e-05 3.213622100311254e-05 3.0201003639419777e-05 3.213622100311254e-05 -2.9888262215280402e-05 -1.7812787198329232e-05 3.0201003639419777e-05 -1.7812787198329232e-05 -1.7370265588055046e-05" pbc="T T T"
Si       0.87631605       3.35312455       4.87494146
Si       2.24151465       0.23343362       1.51102400
Si      -1.15071164      -0.47257974       2.06761347
Si       1.80686518       0.08557526       5.78800009
Si       3.62776437      -1.04668633       4.91952268
Si       5.46939914       6.53206644       1.19913606
Si      -2.22502519       2.67117760       3.29165445
Si       1.33784480       3.27756732      -0.07226300
Si      -0.59018017       2.82799908       1.41576932
Si      -0.81050011      -2.00186693       5.13615594
Si      -1.81595182       1.30661456       5.33873948
Si       2.72998426       3.57976099       1.97482203
Si       2.04269161       5.84500676       2.31241055
Si      -4.13094782       0.81214203       5.67632800
Si       4.60249801       2.67115195       0.84062959
Si      -0.11480836       0.10745274       4.20454704
Si      -1.22918290       3.47846082       6.20795800
Si       1.11314381       2.01545894       2.84404055
18
Lattice="6.702202757961852 1.4709932611147993 0.3558743443475094 -1.955287205280297 6.577248279329565 -0.35587434434750564 -2.802289337030708 -3.771192575325178 7.085475070476452" Properties=species:S:1:pos:R:3 unique_starting_index=64 config_type=initial n_minim_iter=10 stress="3.91522589301865e-05 -4.856373522516453e-05 6.098526167404657e-05 -4.856373522516453e-05 -1.4542711568811925e-05 -3.596958238266433e-05 6.098526167404657e-05 -3.596958238266433e-05 8.27287659231606e-05" pbc="T T T"
Si       0.87552809       3.35396057       4.87627408
Si       2.24056411       0.23214863       1.51147372
Si      -1.15216224      -0.47395528       2.06635216
Si       1.80730916       0.08754452       5.78702687
Si       3.62746813      -1.04502946       4.91801451
Si       5.46657349       6.52930218       1.19733980
Si      -2.22602756       2.66971194       3.29397735
Si       1.33880489       3.27758356      -0.07082302
Si      -0.59261507       2.82593805       1.41666957
Si      -0.80993244      -1.99870461       5.13734428
Si      -1.81381213       1.30737281       5.34281116
Si       2.73051824       3.57595143       1.97801079
Si       2.03985219       5.84279343       2.31202716
Si      -4.13183721       0.81508029       5.67682752
Si       4.59921944       2.66910565       0.83933714
Si      -0.11605640       0.11069452       4.20413750
Si      -1.22886261       3.47847046       6.20955623
Si       1.11345269       2.01360387       2.84475587
18
Lattice="6.70143794096593 1.4704533076293969 0.3549052596320037 -1.9553897222694128 6.576317696141134 -0.35490525963200004 -2.8030575250214853 -3.7697484435572095 7.086498728997554" Properties=species:S:1:pos:R:3 unique_starting_index=64 config_type=initial n_minim_iter=11 stress="1.2620520206790883e-05 -1.1106049555116665e-05 4.880629080584006e-06 -1.1106049555116665e-05 3.4100751116438424e-07 -2.878633049405281e-06 4.880629080584006e-06 -2.878633049405281e-06 3.954051318708568e-06" pbc="T T T"
Si       0.87518375       3.35564453       4.87723555
Si       2.23892545       0.23064321       1.51143881
Si      -1.15341108      -0.47506170       2.06531397
Si       1.80690676       0.08962486       5.78601597
Si       3.62642894      -1.04221324       4.91605651
Si       5.46350521       6.52692649       1.19535452
Si      -2.22640322       2.66889071       3.29694817
Si       1.33934354       3.27731761      -0.06884856
Si      -0.59434472       2.82396412       1.41732464
Si      -0.80980826      -1.99578375       5.13802664
Si      -1.81172558       1.30786828       5.34692218
Si       2.73109582       3.57289360       1.98112544
Si       2.03761680       5.84074629       2.31188292
Si      -4.13199616       0.81754858       5.67767966
Si       4.59628437       2.66784634       0.83734098
Si      -0.11724335       0.11339398       4.20313771
Si      -1.22858809       3.47943120       6.21146775
Si       1.11274639       2.01190675       2.84567101
18
Lattice="6.700311786046008 1.470159516222402 0.3539972212690341 -1.9551019838952879 6.575189979455726 -0.3539972212690305 -2.803781325738084 -3.768363533905485 7.088393164774072" Properties=species:S:1:pos:R:3 unique_starting_index=64 config_type=initial n_minim_iter=12 stress="-1.8961790877053968e-05 3.120623145654694e-05 -3.801002944138724e-05 3.120623145654694e-05 1.5541685218015015e-05 2.2418611445295364e-05 -3.801002944138724e-05 2.2418611445295364e-05 -5.326874747664969e-05" pbc="T T T"
Si       0.87452483       3.35672320       4.87829103
Si       2.23746147       0.22985865       1.51109306
Si      -1.15432839      -0.47654969       2.06462294
Si       1.80684021       0.09169314       5.78581813
Si       3.62555002      -1.04018583       4.91533446
Si       5.46139221       6.52474772       1.19413927
Si      -2.22665392       2.66800986       3.30039026
Si       1.33979195       3.27712384      -0.06680771
Si      -0.59548320       2.82246773       1.41777475
Si      -0.80997447      -1.99351785       5.13896994
Si      -1.81065258       1.30806379       5.35178760
Si       2.73124268       3.57102060       1.98458962
Si       2.03540219       5.83776471       2.31284443
Si      -4.13109550       0.82034712       5.68004241
Si       4.59321054       2.66678576       0.83490348
Si      -0.11843958       0.11601508       4.20210145
Si      -1.22854229       3.48059023       6.21384442
Si       1.11155302       2.01046655       2.84664644
18
Lattice="6.700178100654301 1.4702666404858962 0.3543670833475688 -1.9549435526211436 6.575124811034242 -0.3543670833475652 -2.803371502316306 -3.768633526530104 7.089057790464486" Properties=species:S:1:pos:R:3 unique_starting_index=64 config_type=initial n_minim_iter=13 stress="-4.199094428416477e-06 -1.914484241909302e-06 3.5170939544347816e-06 -1.914484241909302e-06 -6.3158627219336155e-06 -2.0744094108018586e-06 3.5170939544347816e-06 -2.0744094108018586e-06 1.5871203058081527e-05" pbc="T T T"
Si       0.87427705       3.35560135       4.87803459
Si       2.23805163       0.23080683       1.51068923
Si      -1.15395081      -0.47693456       2.06501509
Si       1.80749778       0.09146746       5.78672753
Si       3.62622040      -1.04171457       4.91725778
Si       5.46294113       6.52502405       1.19554535
Si      -2.22640216       2.66804615       3.30042402
Si       1.33961024       3.27707451      -0.06692133
Si      -0.59471868       2.82313273       1.41729090
Si      -0.81004849      -1.99459011       5.13900333
Si      -1.81182921       1.30762536       5.35201209
Si       2.73078535       3.57245102       1.98466673
Si       2.03561452       5.83690104       2.31388678
Si      -4.12994040       0.82043256       5.68123214
Si       4.59345077       2.66698000       0.83460081
Si      -0.11819685       0.11556426       4.20194616
Si      -1.22885185       3.48074309       6.21389009
Si       1.11099772       2.01085208       2.84654473
18
Lattice="6.700548876728949 1.470193100705266 0.35438837221434244 -1.9551873008226885 6.575413722458576 -0.3543883722143389 -2.8033901430104464 -3.7687676789398714 7.088233248212438" Properties=species:S:1:pos:R:3 unique_starting_index=64 config_type=initial n_minim_iter=14 stress="8.1539217557254e-06 -8.554539291963703e-06 1.342091120218207e-06 -8.554539291963703e-06 -1.304488574195532e-06 -7.915757968435425e-07 1.342091120218207e-06 -7.915757968435425e-07 -3.455597977101224e-06" pbc="T T T"
Si       0.87439671       3.35534716       4.87713311
Si       2.23852670       0.23085539       1.51021067
Si      -1.15465769      -0.47777923       2.06429881
Si       1.80807107       0.09239093       5.78560962
Si       3.62668686      -1.04210554       4.91757007
Si       5.46345994       6.52512419       1.19625926
Si      -2.22614545       2.66816347       3.30063084
Si       1.33982648       3.27682338      -0.06629160
Si      -0.59509115       2.82264108       1.41655467
Si      -0.80962236      -1.99413011       5.13786548
Si      -1.81105555       1.30760446       5.35220215
Si       2.73137266       3.57181437       1.98527971
Si       2.03508069       5.83705684       2.31364105
Si      -4.13040272       0.82100943       5.68056349
Si       4.59319412       2.66702842       0.83356842
Si      -0.11843108       0.11595051       4.20049086
Si      -1.22911057       3.48175537       6.21311485
Si       1.11018134       2.01061904       2.84619241
