22
Lattice="8.62979413039921 -0.7242205941704949 -0.06206351437893825 -4.290193477295582 7.5227709076818075 0.0620635143789267 -2.2221140166921614 -3.3658826666760855 7.66385916186487" Properties=species:S:1:pos:R:3 unique_starting_index=6 config_type=initial n_minim_iter=1 energy=-3577.7491501250233 free_energy=-3577.7491501250233 pbc="T T T"
Si      -3.81329659       5.05118090       7.45359087
Si       1.16011292       1.42666595       5.86998720
Si       4.85654185       1.74805010      -0.12423765
Si       0.02349296      -0.07875188       4.51072799
Si       7.21331474      -2.43716933       1.73180844
Si      -0.32515781       2.82465779       0.27233180
Si       2.03616358       3.42082115       3.15313117
Si      -2.68122512       1.77521594       7.78809681
Si      -1.97624120       4.65748115       1.91072940
Si       1.18883003       5.41370567       4.17173782
Si       1.37154344       1.60389894       1.65992541
Si       1.81596101       5.93004896      -0.29312783
Si       2.18788619      -0.00829066       3.49212133
Si       2.83449825      -3.19756084       5.75312976
Si       2.39220428       0.77793944       7.95698699
Si      -1.34473547      -1.44655203       6.00393375
Si      -2.21615760       2.29790954       1.75353007
Si       3.19496230       1.86159319       4.55944590
Si      -1.87868286       0.31587892       3.10441326
Si      -3.49494270       3.11417425       5.97239260
Si       2.16980033       3.39927516      -0.00000000
Si       3.20384006      -2.04505163       3.80089782
22
Lattice="8.669627305260803 -0.7233099723351912 -0.08803263148389578 -4.3061379252668 7.559285091646054 0.0880326314838842 -2.2559481761120685 -3.3706225359433013 7.696945252455489" Properties=species:S:1:pos:R:3 unique_starting_index=6 config_type=initial n_minim_iter=2 stress="0.002452107197603393 0.00031689583140764106 0.0019246980049912588 0.00031689583140764106 0.0027462872239129117 -0.0012285590801450147 0.0019246980049912588 -0.0012285590801450147 0.0022498281038732526" pbc="T T T"
Si      -3.85043755       5.08799921       7.50610648
Si       1.14973373       1.44651699       5.89513470
Si       4.88120064       1.75999637      -0.13490225
Si       0.00998043      -0.07147631       4.52945639
Si       7.24168951      -2.44205543       1.71377791
Si      -0.32590329       2.83824442       0.27887140
Si       2.03850648       3.44431265       3.16748886
Si      -2.71460514       1.79787248       7.83184750
Si      -1.98866072       4.68348175       1.93212469
Si       1.18648770       5.44980102       4.19619592
Si       1.37398681       1.61604964       1.66673560
Si       1.82789131       5.96139664      -0.28864977
Si       2.18777858       0.00004159       3.50074933
Si       2.82947684      -3.20261918       5.76482056
Si       2.38178127       0.79721888       7.98559501
Si      -1.36857699      -1.44395998       6.03020965
Si      -2.23036072       2.31048275       1.77098467
Si       3.19813904       1.88239490       4.57379500
Si      -1.89498623       0.32277839       3.12315025
Si      -3.52733700       3.13835912       6.01399321
Si       2.18174469       3.41798756      -0.00000000
Si       3.20683956      -2.04696625       3.80445631
22
Lattice="8.657803227447593 -0.7255346583999177 -0.1980059421249531 -4.303177699502719 7.547623397616239 0.19800594212494133 -2.344214575674648 -3.304508832226358 7.688175532581897" Properties=species:S:1:pos:R:3 unique_starting_index=6 config_type=initial n_minim_iter=3 stress="-0.0006599695037023163 0.0015125626772998291 -0.0023603957485665936 0.0015125626772998291 0.0007441692829312189 0.0015066704605694412 -0.0023603957485665936 0.0015066704605694412 -0.0016254568071955165" pbc="T T T"
Si      -3.94234080       5.13526979       7.58524745
Si       1.07636720       1.49496806       5.88806185
Si       4.87830553       1.75646930      -0.17828024
Si      -0.04814807      -0.03876925       4.52122929
Si       7.21643525      -2.42431504       1.60210774
Si      -0.32963975       2.82923702       0.30093402
Si       1.99551633       3.45758456       3.16694624
Si      -2.80485188       1.85987521       7.86645577
Si      -2.01203745       4.68815894       1.98516502
Si       1.13756141       5.47173147       4.21841710
Si       1.35136541       1.62672867       1.66364917
Si       1.82333455       5.94852148      -0.26383602
Si       2.14000305       0.03100965       3.46975843
Si       2.75529489      -3.15574024       5.70301051
Si       2.28375490       0.85377871       7.95201155
Si      -1.43763296      -1.39386904       6.02452636
Si      -2.24973316       2.31511281       1.81049996
Si       3.13782520       1.91885747       4.54620475
Si      -1.92478602       0.34953559       3.14197078
Si      -3.60028735       3.17718862       6.07568151
Si       2.17731276       3.41104437      -0.00000000
Si       3.15679432      -2.01502174       3.74508479
22
Lattice="8.67910661990687 -0.8167023449059773 -0.23245175372398205 -4.394840697551165 7.528563586968917 0.23245175372397042 -2.3380697120437897 -3.23086171474787 7.755184772750137" Properties=species:S:1:pos:R:3 unique_starting_index=6 config_type=initial n_minim_iter=4 stress="-3.3357976548553305e-05 -0.0014702269257591174 -0.0019703924704019605 -0.0014702269257591174 -0.00139819573341607 0.001257726435359691 -0.0019703924704019605 0.001257726435359691 0.0009051069533372665" pbc="T T T"
Si      -4.04863518       5.14226027       7.68752390
Si       1.03906106       1.50207015       5.94697453
Si       4.87372813       1.69081117      -0.19240350
Si      -0.06935526      -0.03422194       4.55676991
Si       7.26603198      -2.47268415       1.57575849
Si      -0.36406544       2.79035280       0.30011262
Si       1.94435482       3.40368263       3.19841486
Si      -2.85633526       1.90172722       7.94758827
Si      -2.07777154       4.66536359       2.00511738
Si       1.07975140       5.41824766       4.26156054
Si       1.33120753       1.60394947       1.68532606
Si       1.75086965       5.87528406      -0.25910083
Si       2.12197424       0.02970246       3.49362423
Si       2.76843831      -3.15131464       5.75006738
Si       2.25397847       0.83086215       8.01428560
Si      -1.44366323      -1.34809661       6.06985871
Si      -2.28439264       2.30971920       1.83200369
Si       3.10421607       1.89025833       4.58690094
Si      -1.93043208       0.38065674       3.16828382
Si      -3.67610555       3.19806715       6.15563284
Si       2.14213296       3.35593062      -0.00000000
Si       3.17051845      -2.02378203       3.76136651
22
Lattice="8.668982560711965 -0.8205014671554373 -0.22408216469207845 -4.39402430486034 7.517781035906081 0.2240821646920667 -2.326361014158048 -3.228074087417264 7.748695130795659" Properties=species:S:1:pos:R:3 unique_starting_index=6 config_type=initial n_minim_iter=5 stress="-0.0006755249603841119 0.00035638466988929113 -0.0006964526924876527 0.00035638466988929113 -0.0003446867442464523 0.0004445545623408701 -0.0006964526924876527 0.0004445545623408701 -0.0009030096303205153" pbc="T T T"
Si      -4.07031481       5.11526519       7.69601167
Si       1.04030157       1.53185034       5.95909369
Si       4.87923401       1.69081607      -0.19003346
Si      -0.07054811      -0.04724135       4.54564191
Si       7.29410655      -2.46003248       1.56551927
Si      -0.36689883       2.75132793       0.27676562
Si       1.93544876       3.38532522       3.20305322
Si      -2.84694019       1.90951103       7.93872859
Si      -2.07994843       4.64489258       1.97313716
Si       1.10731473       5.40199132       4.25238117
Si       1.33335199       1.60315235       1.69704944
Si       1.73142085       5.86660387      -0.26133731
Si       2.10733295       0.05064729       3.49631396
Si       2.76249523      -3.15912021       5.77555796
Si       2.26600205       0.81235419       8.01003244
Si      -1.43358042      -1.34369944       6.05164568
Si      -2.27791176       2.28014905       1.81137234
Si       3.10076128       1.90763545       4.60178419
Si      -1.90150689       0.38762675       3.14691093
Si      -3.69313071       3.18350120       6.16140495
Si       2.13747913       3.34863979      -0.00000000
Si       3.17131077      -2.02428777       3.76230648
22
Lattice="8.69541244087679 -0.9236242842732387 -0.25392522575985504 -4.498689575588965 7.4983379116935875 0.25392522575984344 -2.3123985224448895 -3.1507342321514527 7.826457961777798" Properties=species:S:1:pos:R:3 unique_starting_index=6 config_type=initial n_minim_iter=6 stress="0.0008980742998040323 -0.0005768245824320576 0.0018748932605473002 -0.0005768245824320576 0.0003625977992730058 -0.0011967680818366756 0.0018748932605473002 -0.0011967680818366756 0.0012662682623225442" pbc="T T T"
Si      -4.21468032       5.10378036       7.83572082
Si       0.99596959       1.57753087       6.04475937
Si       4.87316147       1.60701593      -0.21277414
Si      -0.07588899      -0.04240816       4.58343519
Si       7.39459808      -2.50679462       1.52777336
Si      -0.40723867       2.67344220       0.24466237
Si       1.87780842       3.33728952       3.24302276
Si      -2.90643221       1.94606152       8.03923209
Si      -2.14839915       4.60845874       1.97479446
Si       1.06402200       5.33724783       4.29047639
Si       1.31008988       1.57502698       1.73182430
Si       1.64336295       5.79328165      -0.25686199
Si       2.08079664       0.06146026       3.53598157
Si       2.77222919      -3.15920802       5.85166350
Si       2.25053125       0.77895099       8.08331994
Si      -1.43533539      -1.29930081       6.09463366
Si      -2.30389156       2.24755550       1.80476835
Si       3.05322475       1.90090311       4.67518499
Si      -1.87363731       0.41901403       3.15127296
Si      -3.80245963       3.20411045       6.27561483
Si       2.09836143       3.28735682      -0.00000000
Si       3.19150696      -2.03717925       3.78626637
22
Lattice="8.780455972248104 -1.1854449293618476 -0.5917082175441558 -4.771979495848161 7.465246040978274 0.5917082175441419 -2.5029981871340166 -2.8215357720932683 8.039013704295334" Properties=species:S:1:pos:R:3 unique_starting_index=6 config_type=initial n_minim_iter=7 stress="0.005038323946169116 0.0008882545732232028 -0.0007371939075198101 0.0008882545732232028 0.005862906436128319 0.0004705601951902528 -0.0007371939075198101 0.0004705601951902528 0.0044713399999351255" pbc="T T T"
Si      -4.80671954       5.22687480       8.43330471
Si       0.69286365       1.81828263       6.27224636
Si       4.81820384       1.34645990      -0.41019956
Si      -0.15424307       0.09570613       4.70212492
Si       7.63502918      -2.61298943       1.17505912
Si      -0.51021672       2.48436270       0.19741720
Si       1.65722771       3.35865259       3.33688878
Si      -3.31023190       2.11571208       8.44921326
Si      -2.34858826       4.56256859       2.17034956
Si       0.78970447       5.27094900       4.43452820
Si       1.17963567       1.52101607       1.79495153
Si       1.46416636       5.62987400      -0.17596023
Si       1.94555268       0.11392529       3.60448550
Si       2.62428769      -3.03091220       5.86866414
Si       1.98715695       0.87681132       8.21497393
Si      -1.62000241      -1.11117070       6.24406217
Si      -2.38284698       2.20492536       1.83717440
Si       2.74388512       1.98385061       4.84412481
Si      -1.85876207       0.50254735       3.19488889
Si      -4.27177547       3.41065230       6.79354751
Si       2.00423824       3.13990056      -0.00000000
Si       3.13872889      -2.00349035       3.72365274
22
Lattice="8.810068504185018 -1.2956016189383524 -0.7228613429345387 -4.884364810441243 7.445728372829056 0.7228613429345194 -2.5721629298273374 -2.686132406135026 8.123243790732301" Properties=species:S:1:pos:R:3 unique_starting_index=6 config_type=initial n_minim_iter=8 stress="0.0073973371458105515 0.0002106751493365057 -0.002556732181374866 0.0002106751493365057 0.007592910627163052 0.001631994488891825 -0.002556732181374866 0.001631994488891825 0.007262861166276559" pbc="T T T"
Si      -5.04231286       5.27343867       8.67350890
Si       0.56708847       1.91113020       6.36473220
Si       4.77879327       1.22877379      -0.49364113
Si      -0.17106352       0.15803057       4.75625448
Si       7.73264808      -2.66273712       1.03565025
Si      -0.55034217       2.40615696       0.17259623
Si       1.56890344       3.37536419       3.36698931
Si      -3.46955167       2.16582016       8.61688492
Si      -2.42279325       4.53972162       2.25845452
Si       0.66450999       5.23856591       4.48478414
Si       1.11959692       1.49403625       1.81614946
Si       1.39314228       5.55800361      -0.13986891
Si       1.89972372       0.12213683       3.63845965
Si       2.56564107      -2.97243564       5.86478926
Si       1.88270429       0.91753345       8.26311270
Si      -1.68836197      -1.04158461       6.30709433
Si      -2.40060514       2.18735731       1.83171340
Si       2.60045284       2.01305393       4.92283863
Si      -1.84105048       0.52014513       3.20040515
Si      -4.46178419       3.50303396       7.01439173
Si       1.96285185       3.07506338      -0.00000000
Si       3.11895279      -1.99086701       3.70019122
22
Lattice="8.759393593640459 -1.2747079358480622 -0.7042668589464685 -4.844078153007052 7.4085601365975995 0.7042668589464416 -2.551295209518897 -2.6879997826965947 8.069287340325848" Properties=species:S:1:pos:R:3 unique_starting_index=6 config_type=initial n_minim_iter=9 stress="0.001119599728685392 0.0008040090514603351 0.0019081448557942738 0.0008040090514603351 0.0018659756051368486 -0.0012179929956495337 0.0019081448557942738 -0.0012179929956495337 0.0006063901096908538" pbc="T T T"
Si      -4.99883447       5.22525406       8.62204877
Si       0.56905651       1.91885303       6.32075257
Si       4.69545865       1.19526502      -0.50677348
Si      -0.11019278       0.19442557       4.75451295
Si       7.70901732      -2.63867426       1.04426791
Si      -0.55119891       2.38627203       0.15150542
Si       1.58676750       3.42775814       3.31477438
Si      -3.44399292       2.07425612       8.57606081
Si      -2.37701856       4.51462686       2.28409000
Si       0.63064291       5.23315438       4.43269780
Si       1.09369421       1.47539141       1.78999700
Si       1.42075292       5.55265276      -0.12806684
Si       1.92994150       0.08727188       3.63658954
Si       2.54447460      -2.94334826       5.78519734
Si       1.88709396       0.93845759       8.19735418
Si      -1.67350063      -1.07479691       6.27929034
Si      -2.34903317       2.17592461       1.76293495
Si       2.54321319       2.01665162       4.91850436
Si      -1.79282062       0.46787306       3.15078298
Si      -4.43271254       3.50596350       7.01061924
Si       1.95765772       3.06692610      -0.00000000
Si       3.10404919      -1.98135386       3.68251024
22
Lattice="8.759308946253638 -1.2953573877237041 -0.7832994251707012 -4.862772660372628 7.399789593723699 0.7832994251706673 -2.608523490106817 -2.6307667640014007 8.080326317810993" Properties=species:S:1:pos:R:3 unique_starting_index=6 config_type=initial n_minim_iter=10 stress="-0.00014911936044966333 0.0002086742886193158 -0.0007551297264892757 0.0002086742886193158 4.459668637550941e-05 0.0004820088552890833 -0.0007551297264892757 0.0004820088552890833 -0.00028231861125685393" pbc="T T T"
Si      -5.08077170       5.25949818       8.70047865
Si       0.51105156       1.95323228       6.32921111
Si       4.66217933       1.17284159      -0.53973552
Si      -0.13861226       0.23552864       4.78153882
Si       7.70730925      -2.64023001       0.96781577
Si      -0.56156353       2.37483045       0.16314709
Si       1.56000780       3.44709827       3.29878749
Si      -3.50754929       2.09186239       8.62006183
Si      -2.39859364       4.51114366       2.34659176
Si       0.56700552       5.24962280       4.44900968
Si       1.06337641       1.47435044       1.78743575
Si       1.41338154       5.53634424      -0.10307155
Si       1.91444336       0.09371589       3.63131663
Si       2.49317035      -2.90715146       5.73373456
Si       1.81817646       0.98213822       8.18339786
Si      -1.71890883      -1.04550200       6.29289056
Si      -2.35436960       2.18798409       1.77687993
Si       2.47503577       2.03081348       4.91855663
Si      -1.80849952       0.46922793       3.16176968
Si      -4.49545001       3.55466279       7.08674580
Si       1.94826814       3.05221611      -0.00000000
Si       3.07539273      -1.96306207       3.64851344
22
Lattice="8.75626911621222 -1.3524844470819293 -0.8848790207637545 -4.913310106474606 7.372980863446249 0.8848790207637065 -2.6673579729504104 -2.5341445481430607 8.108500894109438" Properties=species:S:1:pos:R:3 unique_starting_index=6 config_type=initial n_minim_iter=11 stress="-0.0014926453492847174 -0.001825386166992605 -0.0014234893513483382 -0.001825386166992605 -0.003187183735114807 0.0009086312572405211 -0.0014234893513483382 0.0009086312572405211 -0.0003274779190518692" pbc="T T T"
Si      -5.24151399       5.27550589       8.84669520
Si       0.42403703       2.03630347       6.37173673
Si       4.57718723       1.13312386      -0.57498288
Si      -0.17869588       0.29601637       4.85998475
Si       7.75741946      -2.64468729       0.85188514
Si      -0.58874044       2.30558168       0.14668471
Si       1.51933748       3.44889307       3.24851614
Si      -3.56662676       2.09467045       8.68348377
Si      -2.43652326       4.46189079       2.41394952
Si       0.48996906       5.25412515       4.45448097
Si       1.00401975       1.46536632       1.80687634
Si       1.36467527       5.49617145      -0.05787269
Si       1.89212637       0.12235752       3.65401992
Si       2.40562991      -2.86566970       5.69455137
Si       1.74340929       1.01766786       8.16637358
Si      -1.76090224      -1.00650189       6.30162455
Si      -2.34933007       2.18601259       1.76261024
Si       2.35003108       2.05029284       4.95203987
Si      -1.79703613       0.46066541       3.15646102
Si      -4.60873192       3.62821736       7.23076967
Si       1.92147950       3.01024821      -0.00000000
Si       3.04445557      -1.94331449       3.61181093
22
Lattice="8.730346359387232 -1.2878939363148771 -0.8706062221125912 -4.843809183559472 7.3766612325175185 0.870606222112541 -2.6771162826172406 -2.575959382874643 8.051897615293544" Properties=species:S:1:pos:R:3 unique_starting_index=6 config_type=initial n_minim_iter=12 stress="-0.002414843010063517 -0.0026968855589977587 -0.0010554476609550853 -0.0026968855589977587 -0.004918409753665335 0.0006737055912750252 -0.0010554476609550853 0.0006737055912750252 -0.000693386586305982" pbc="T T T"
Si      -5.21999738       5.23520835       8.80310972
Si       0.44690032       2.09631645       6.34619096
Si       4.53727753       1.22024850      -0.54052917
Si      -0.20187743       0.29720735       4.88389894
Si       7.76654752      -2.57590694       0.83510043
Si      -0.57460867       2.26999798       0.11939412
Si       1.56399744       3.45482366       3.16799867
Si      -3.48055576       2.05333633       8.59242678
Si      -2.39137322       4.42306895       2.36768844
Si       0.57707762       5.30461202       4.39553538
Si       1.00112364       1.49186736       1.82288039
Si       1.38358284       5.55553747      -0.04117278
Si       1.89148817       0.18081057       3.65636223
Si       2.34164922      -2.88287570       5.68420917
Si       1.77953870       1.01799727       8.09307039
Si      -1.74540339      -1.03978627       6.22901723
Si      -2.32297795       2.17498639       1.73763844
Si       2.36017374       2.08606763       4.92358182
Si      -1.77861504       0.44311229       3.12831579
Si      -4.57008533       3.60934346       7.18486539
Si       1.94326859       3.04438365      -0.00000000
Si       3.02661504      -1.93192666       3.59064569
22
Lattice="8.706351871887671 -1.1192023544836838 -0.7612821217174487 -4.680694915153175 7.425918928904511 0.7612821217173883 -2.654525088083079 -2.743755225057198 7.940908708577375" Properties=species:S:1:pos:R:3 unique_starting_index=6 config_type=initial n_minim_iter=13 stress="0.0010450251543609786 0.001044604310296894 0.001438503789134475 0.001044604310296894 0.0020147498809982923 -0.0009182151627881912 0.001438503789134475 -0.0009182151627881912 0.00037824065486209425" pbc="T T T"
Si      -5.01926705       5.17549162       8.60544500
Si       0.55849403       2.11004838       6.25418587
Si       4.55083599       1.35771778      -0.48792092
Si      -0.15078183       0.27184416       4.83544594
Si       7.73061701      -2.46800842       0.92544071
Si      -0.52758026       2.30839113       0.09674583
Si       1.68119056       3.54064518       3.10546276
Si      -3.33898099       1.95571559       8.42882962
Si      -2.26725957       4.44949822       2.28332333
Si       0.73939390       5.40210210       4.30513803
Si       1.04856900       1.53531394       1.80408473
Si       1.50510658       5.71098697      -0.05778907
Si       1.93417016       0.20128913       3.63577067
Si       2.33595924      -2.92696673       5.65758537
Si       1.89196729       1.02587672       7.99869777
Si      -1.70337913      -1.14625492       6.13682398
Si      -2.27270343       2.16386230       1.69342060
Si       2.47510379       2.14511516       4.86095539
Si      -1.75085208       0.40442408       3.07995331
Si      -4.41563642       3.53172353       7.00877023
Si       2.01282848       3.15335829      -0.00000000
Si       3.02591339      -1.93147879       3.58981329
22
Lattice="8.696145450852724 -1.1149237838290147 -0.8454259815479805 -4.672516951935461 7.418462514565211 0.8454259815479045 -2.724437113097666 -2.6968931782612446 7.930003495474369" Properties=species:S:1:pos:R:3 unique_starting_index=6 config_type=initial n_minim_iter=14 stress="0.0011511745892210672 0.0004271825846135776 -0.0016427856565710756 0.0004271825846135776 0.0015477357665040486 0.0010486108625192708 -0.0016427856565710756 0.0010486108625192708 0.0008784989491245892" pbc="T T T"
Si      -5.11338824       5.18906913       8.69546743
Si       0.49349576       2.19580252       6.25668363
Si       4.48734270       1.35876563      -0.51432653
Si      -0.18255903       0.32937236       4.87862407
Si       7.75564745      -2.43972075       0.82789388
Si      -0.53737221       2.26814022       0.07996205
Si       1.67480993       3.57972611       3.05137943
Si      -3.38121083       1.94542702       8.44433002
Si      -2.25646225       4.42993688       2.32502022
Si       0.70796429       5.43036065       4.28551193
Si       1.00625959       1.54533398       1.81606225
Si       1.50068594       5.72632268      -0.01673455
Si       1.90312253       0.23154018       3.64449156
Si       2.24375819      -2.87854659       5.60498327
Si       1.83782673       1.07518560       7.94673804
Si      -1.74638949      -1.13355114       6.11394124
Si      -2.27615445       2.15628558       1.69721321
Si       2.41079544       2.19370722       4.85121787
Si      -1.74961365       0.41341312       3.07878562
Si      -4.48279003       3.56480898       7.07821626
Si       2.01181425       3.15176937      -0.00000000
Si       2.98585417      -1.90590848       3.54228875
22
Lattice="8.63138780182634 -0.95996868323363 -0.810119048675285 -4.504700428717965 7.424962579421733 0.8101190486751884 -2.746205763886144 -2.79661744730113 7.79204548800785" Properties=species:S:1:pos:R:3 unique_starting_index=6 config_type=initial n_minim_iter=15 stress="0.0023866591518581473 0.00047202782897625773 -0.002182509286781053 0.00047202782897625773 0.0028248509656420913 0.0013931232820988757 -0.002182509286781053 0.0013931232820988757 0.0020853583586885995" pbc="T T T"
Si      -4.99646977       5.09954938       8.57786882
Si       0.53461657       2.29806328       6.14527244
Si       4.37241855       1.48397536      -0.46410105
Si      -0.16712102       0.38128537       4.90490591
Si       7.74456453      -2.30413769       0.83665399
Si      -0.52174811       2.24327795       0.02429571
Si       1.79668834       3.67731634       2.88713957
Si      -3.24102265       1.79417585       8.25614653
Si      -2.09633243       4.40284676       2.26652041
Si       0.82626345       5.50696498       4.13596017
Si       0.98598948       1.58956098       1.82609458
Si       1.58109831       5.87094506       0.02414755
Si       1.90103214       0.27137121       3.65608531
Si       2.13000006      -2.84443004       5.52552507
Si       1.91338328       1.10928804       7.76789793
Si      -1.71950786      -1.23304117       5.96595090
Si      -2.25877896       2.12808346       1.66674120
Si       2.47416066       2.28399101       4.74307994
Si      -1.71616794       0.40917543       3.04896555
Si      -4.36963834       3.47547170       6.93542333
Si       2.06334369       3.23249695      -0.00000000
Si       2.94259102      -1.87829306       3.49096322
22
Lattice="8.59331876331257 -0.9091724514842529 -0.7463508937300131 -4.44259785974596 7.411818007143539 0.7463508937299138 -2.704471300467935 -2.8497533661272634 7.732625835264675" Properties=species:S:1:pos:R:3 unique_starting_index=6 config_type=initial n_minim_iter=16 stress="-0.00014879703741889905 0.0002975265940404148 -0.000394063261290758 0.0002975265940404148 0.00012740218196434185 0.0002515355637824885 -0.000394063261290758 0.0002515355637824885 -0.0003387119279586664" pbc="T T T"
Si      -4.89910454       5.03466363       8.47875048
Si       0.58133699       2.29747362       6.09205841
Si       4.33817537       1.52644876      -0.42295128
Si      -0.14538854       0.37329398       4.89720298
Si       7.72802503      -2.26434775       0.89421652
Si      -0.51775827       2.23799489       0.00022624
Si       1.84605798       3.67818008       2.83542285
Si      -3.14634562       1.72786157       8.15557712
Si      -2.02906770       4.38637280       2.20946353
Si       0.88638996       5.49511607       4.07039789
Si       0.99110022       1.59625547       1.82978972
Si       1.59750150       5.90351052       0.02344155
Si       1.90670475       0.26778463       3.66222794
Si       2.12847219      -2.84348910       5.52316230
Si       1.97775032       1.08474129       7.70918428
Si      -1.67385285      -1.27872288       5.90283611
Si      -2.25904223       2.11129549       1.64760072
Si       2.53148483       2.29085256       4.69247105
Si      -1.69234412       0.41092439       3.04015478
Si      -4.28091805       3.40188440       6.83137600
Si       2.07536045       3.25132278      -0.00000000
Si       2.94442373      -1.87946291       3.49313747
22
Lattice="8.588098332618028 -0.9179309410737732 -0.7215113415886553 -4.4483443848942095 7.403395330297851 0.7215113415885543 -2.678050152649383 -2.8545275624244337 7.732937900603744" Properties=species:S:1:pos:R:3 unique_starting_index=6 config_type=initial n_minim_iter=17 stress="-0.0010470411715603344 -0.00032358779447317005 0.000709819613855182 -0.00032358779447317005 -0.0013474334659944417 -0.00045308683732167034 0.000709819613855182 -0.00045308683732167034 -0.0008404911653235534" pbc="T T T"
Si      -4.88230416       5.01346737       8.46342340
Si       0.59378550       2.28790918       6.09133212
Si       4.33384500       1.52410595      -0.40724767
Si      -0.14085505       0.36341638       4.89990465
Si       7.73530926      -2.27061576       0.92009444
Si      -0.52338302       2.23111288      -0.00897416
Si       1.85064400       3.65617820       2.83303325
Si      -3.12022637       1.71817314       8.14018557
Si      -2.02158706       4.38067741       2.18848821
Si       0.89352088       5.46730320       4.06102796
Si       0.99106083       1.59078182       1.83632580
Si       1.58351903       5.89375299       0.02052969
Si       1.90489593       0.25776887       3.67190994
Si       2.14657785      -2.84387582       5.54444969
Si       2.00120773       1.06317617       7.71240820
Si      -1.65238000      -1.28583731       5.89661210
Si      -2.27109859       2.10669393       1.64051850
Si       2.54654644       2.28144507       4.68509646
Si      -1.68079725       0.41585117       3.04784144
Si      -4.25934136       3.37581444       6.81393074
Si       2.06987697       3.24273220      -0.00000000
Si       2.95502409      -1.88622925       3.50571328
22
Lattice="8.595095506418154 -0.9421002440671989 -0.7235882578955314 -4.473213148131729 7.399566457955564 0.7235882578954254 -2.6708650234194464 -2.839411002832708 7.7518400902595035" Properties=species:S:1:pos:R:3 unique_starting_index=6 config_type=initial n_minim_iter=18 stress="0.00019465791046514622 -0.0005192235752392301 0.0005480632877187998 -0.0005192235752392301 -0.00028734655247592613 -0.00034983572845687983 0.0005480632877187998 -0.00034983572845687983 0.000526084750006324" pbc="T T T"
Si      -4.91148688       5.00780771       8.49491000
Si       0.58525705       2.29793744       6.11080866
Si       4.33152395       1.50808912      -0.40338020
Si      -0.14686548       0.36504838       4.91214553
Si       7.76217834      -2.28318219       0.91744317
Si      -0.53391385       2.21354748      -0.01948166
Si       1.84396834       3.63853190       2.83969456
Si      -3.12659214       1.72444103       8.15522029
Si      -2.02738077       4.38399017       2.18403925
Si       0.87957420       5.43718515       4.06769398
Si       0.97990296       1.58253412       1.84549917
Si       1.56488572       5.88161095       0.02549722
Si       1.89063417       0.24755485       3.68414610
Si       2.15920707      -2.83261973       5.56780083
Si       2.00522432       1.05627932       7.72634286
Si      -1.64797833      -1.28431395       5.90634092
Si      -2.29070153       2.10440584       1.62876623
Si       2.53266639       2.28540286       4.68870609
Si      -1.66417846       0.42004408       3.06313399
Si      -4.27084724       3.36835790       6.84666212
Si       2.06094118       3.22873311      -0.00000000
Si       2.96211524      -1.89075562       3.51412591
22
Lattice="8.589504081954281 -0.9211309945765513 -0.7205998625009225 -4.451838846609754 7.403323143487236 0.7205998625008135 -2.6762374953859953 -2.853381858560579 7.73584460045862" Properties=species:S:1:pos:R:3 unique_starting_index=6 config_type=initial n_minim_iter=19 stress="0.0003323950424617548 0.0002808768783504936 0.0002798975420912129 0.0002808768783504936 0.0005931380351783569 -0.00017866214126569725 0.0002798975420912129 -0.00017866214126569725 0.00015310770919798222" pbc="T T T"
Si      -4.89515048       5.00237256       8.47613152
Si       0.59323006       2.30525576       6.09710248
Si       4.32513597       1.52634910      -0.39665634
Si      -0.14855484       0.36934445       4.91135926
Si       7.75449578      -2.26587073       0.91814225
Si      -0.52971988       2.21586300      -0.01968706
Si       1.85898675       3.64956336       2.82448534
Si      -3.11271240       1.71236369       8.13250094
Si      -2.01146281       4.38947390       2.17959395
Si       0.89200896       5.44840387       4.05722696
Si       0.97868345       1.58687278       1.84177801
Si       1.58219056       5.90180515       0.02885956
Si       1.89020243       0.24958625       3.67861764
Si       2.15210691      -2.82984342       5.55625064
Si       2.01088343       1.06650697       7.70698504
Si      -1.64890197      -1.29756431       5.89406659
Si      -2.28827357       2.10620792       1.62395608
Si       2.53750208       2.29636448       4.67378757
Si      -1.66164407       0.41507448       3.06205703
Si      -4.25423304       3.36110471       6.83248838
Si       2.06883262       3.24109608      -0.00000000
Si       2.95663329      -1.88725642       3.50762237
22
Lattice="8.5889234969712 -0.9315067725354989 -0.7330647917899765 -4.461005790207411 7.398428146832132 0.7330647917898642 -2.681870625978134 -2.839039787358965 7.740937845272771" Properties=species:S:1:pos:R:3 unique_starting_index=6 config_type=initial n_minim_iter=20 stress="-0.00019253328616092487 -1.2023262789595031e-05 -0.0004289098215327909 -1.2023262789595031e-05 -0.00020369469447016587 0.0002737785639229874 -0.0004289098215327909 0.0002737785639229874 -0.00018485857927577184" pbc="T T T"
Si      -4.91236265       5.00847139       8.48775108
Si       0.58507196       2.30460473       6.10242741
Si       4.31784076       1.52010368      -0.39758827
Si      -0.15820560       0.37566032       4.91924144
Si       7.75112624      -2.26957836       0.90544564
Si      -0.53174139       2.21226543      -0.01374844
Si       1.85339805       3.64253999       2.82169640
Si      -3.12093905       1.71745920       8.13852611
Si      -2.02138485       4.39288003       2.18960399
Si       0.87515138       5.44059876       4.06742306
Si       0.96854112       1.57965797       1.83718415
Si       1.58252350       5.89378868       0.03352681
Si       1.88458698       0.24535152       3.67351478
Si       2.15374066      -2.82306712       5.55133385
Si       1.99783877       1.07777597       7.70741103
Si      -1.65680923      -1.29545943       5.90375369
Si      -2.28905951       2.11181949       1.62241624
Si       2.51850599       2.29263366       4.67519906
Si      -1.66266358       0.41061535       3.06573878
Si      -4.26361223       3.37220146       6.85158639
Si       2.06395885       3.23346069      -0.00000000
Si       2.95352643      -1.88527328       3.50393652
22
Lattice="8.575010042914952 -0.9004696797871025 -0.7093154396910801 -4.4269957091183345 7.398875040960914 0.7093154396909627 -2.6719002197954373 -2.8675599827780514 7.712510631041088" Properties=species:S:1:pos:R:3 unique_starting_index=6 config_type=initial n_minim_iter=21 stress="0.0004929216173384442 0.0013141322169844638 -0.0005232700559866068 0.0013141322169844638 0.0017128538848160942 0.00033400989504190736 -0.0005232700559866068 0.00033400989504190736 -0.0003459054683573698" pbc="T T T"
Si      -4.88556548       4.97848393       8.44715889
Si       0.61121688       2.32295454       6.08745440
Si       4.29309881       1.56060389      -0.36966953
Si      -0.16287706       0.37609102       4.93346054
Si       7.75281999      -2.23562106       0.91574079
Si      -0.52624317       2.19587337      -0.02533282
Si       1.88582252       3.64144786       2.77905009
Si      -3.06381604       1.68354800       8.08218016
Si      -1.99178411       4.39771612       2.15651213
Si       0.91237922       5.43741706       4.04507414
Si       0.95625953       1.57310145       1.83095982
Si       1.61439569       5.93215219       0.04035147
Si       1.87599787       0.24925940       3.66743649
Si       2.15563525      -2.82270180       5.55599850
Si       2.02918817       1.09431721       7.67215916
Si      -1.64761517      -1.33788008       5.88155081
Si      -2.28094734       2.10380060       1.60394947
Si       2.53429545       2.30755179       4.65792425
Si      -1.64580927       0.40269781       3.05458637
Si      -4.23032066       3.34811025       6.81787660
Si       2.07400717       3.24920268      -0.00000000
Si       2.95155491      -1.88401483       3.50159759
