24
Lattice="8.267829486138295 -3.613874048106353e-15 -2.804375924603241e-13 4.133914743069149 7.1601503691538015 2.5266026419798446e-13 4.1339147430696 2.3867167897172026 13.315734462890497" Properties=species:S:1:pos:R:3 unique_starting_index=24 config_type=initial n_minim_iter=1 energy=-3897.139480324449 free_energy=-3897.139480324449 pbc="T T T"
Si       9.45214806       4.04525428      12.97178971
Si       8.30629114       6.16317320      12.97178971
Si       7.04504802       4.11187255      12.97178971
Si       9.16152402       3.56167477       8.93619360
Si       8.87039531       6.15327516       8.93619360
Si       6.77156789       4.60535010       8.93619360
Si       9.60823845       3.37299600       2.17802106
Si       8.81043870       6.63448059       2.17802106
Si       6.38481007       4.31282344       2.17802106
Si       9.64400435       5.10958690       3.71278260
Si       7.28862392       5.79715932       3.71278260
Si       7.87085895       3.41355382       3.71278260
Si       9.89234607       6.66688697      11.28807280
Si       5.81579163       5.23357952      11.28807280
Si       9.09534952       2.41983354      11.28807280
Si      10.42497972       4.41019326      10.78790483
Si       7.50382889       6.82320064      10.78790483
Si       6.87467861       3.08690613      10.78790483
Si       9.38926641       8.76558782      10.00907618
Si       4.24980321       3.74854933      10.00907618
Si      11.16441760       1.80616288      10.00907618
Si       5.41910984       1.69382488       2.09187774
Si       4.09137837       3.84617435       2.09187774
Si       2.89125478       1.62015043       2.09187774
24
Lattice="8.329916939627836 -1.049027069668703e-14 -2.8224419609646297e-13 4.164958469813926 7.213919681132025 2.542719033818972e-13 4.164958469814377 2.4046398937099385 13.369264357802944" Properties=species:S:1:pos:R:3 unique_starting_index=24 config_type=initial n_minim_iter=2 stress="0.00011949720713691713 -1.0143475982915033e-16 2.3410147568199e-16 -1.0143475982915033e-16 0.00011949720713720016 -2.1558341326086444e-17 2.3410147568199e-16 -2.1558341326086444e-17 0.0017639172787338284" pbc="T T T"
Si       9.52365728       4.07615613      13.02407886
Si       8.36794965       6.20965108      13.02407886
Si       7.09814264       4.14203144      13.02407886
Si       9.22970028       3.58807524       8.97194050
Si       8.93761860       6.19911729       8.97194050
Si       6.82243070       4.64064612       8.97194050
Si       9.68037586       3.39854872       2.18657165
Si       8.87641559       6.68417706       2.18657165
Si       6.43295812       4.34511287       2.18657165
Si       9.71708237       5.14832123       3.72792944
Si       7.34271490       5.84107957       3.72792944
Si       7.92995231       3.43843785       3.72792944
Si       9.96676602       6.71785653      11.33371083
Si       5.85861563       5.27254431      11.33371083
Si       9.16436792       2.43743781      11.33371083
Si      10.50322654       4.44380535      10.83105389
Si       7.55977145       6.87415833      10.83105389
Si       6.92675158       3.10987496      10.83105389
Si       9.46064630       8.83118424      10.04915835
Si       4.28148000       3.77756792      10.04915835
Si      11.24762327       1.81908649      10.04915835
Si       5.46023463       1.70706149       2.10042037
Si       4.12144018       3.87517116       2.10042037
Si       2.91319935       1.63168632       2.10042037
24
Lattice="8.374061703452147 -2.3155478163208145e-14 -2.836470322974612e-13 4.187030851726093 7.252150168047936 2.5559284777180146e-13 4.18703085172653 2.4173833893485828 13.148545436371368" Properties=species:S:1:pos:R:3 unique_starting_index=24 config_type=initial n_minim_iter=3 stress="0.0010498934389937648 -1.16790860819578e-16 8.70369986583998e-17 -1.16790860819578e-16 0.0010498934389938717 2.513784242402346e-16 8.70369986583998e-17 2.513784242402346e-16 -0.00306118978612965" pbc="T T T"
Si       9.57708409       4.10484294      12.81001563
Si       8.40468227       6.24157665      12.81001563
Si       7.14041750       4.15788003      12.81001563
Si       9.27140562       3.60454887       8.82421026
Si       8.99078887       6.22699836       8.82421026
Si       6.85998936       4.67275238       8.82421026
Si       9.73203676       3.41890528       2.14954045
Si       8.92124537       6.71873842       2.14954045
Si       6.46890174       4.36665591       2.14954045
Si       9.77260101       5.17878673       3.66684538
Si       7.37686119       5.87392737       3.66684538
Si       7.97272165       3.45158551       3.66684538
Si      10.01926368       6.76199627      11.14828657
Si       5.88243018       5.29593875      11.14828657
Si       9.22048999       2.44636460      11.14828657
Si      10.55800401       4.47246771      10.64958284
Si       7.59584991       6.90726583      10.64958284
Si       6.96832993       3.12456607      10.64958284
Si       9.51904852       8.87675045       9.88317185
Si       4.30110692       3.80536262       9.88317185
Si      11.30202841       1.82218655       9.88317185
Si       5.49159014       1.72106410       2.06591394
Si       4.13778057       3.89532452       2.06591394
Si       2.93172059       1.63576083       2.06591394
24
Lattice="8.308878699806707 -1.0631303709278874e-13 -2.8141597640718016e-13 4.154439349903446 7.19570003099597 2.533699964723607e-13 4.154439349903834 2.3985666769979015 13.12767179781652" Properties=species:S:1:pos:R:3 unique_starting_index=24 config_type=initial n_minim_iter=4 stress="4.052756208532734e-06 -1.1457558118933685e-16 2.0482153279278983e-16 -1.1457558118933685e-16 4.05275620867758e-06 2.299998703874836e-16 2.0482153279278983e-16 2.299998703874836e-16 -0.0025692900188022355" pbc="T T T"
Si       9.52162577       4.13372072      12.79483490
Si       8.27703653       6.17910944      12.79483490
Si       7.12797256       4.07856919      12.79483490
Si       9.13815807       3.55610540       8.80757685
Si       8.96899992       6.13582434       8.80757685
Si       6.81947686       4.69946961       8.80757685
Si       9.65980004       3.40808708       2.13694703
Si       8.83636657       6.66158869       2.13694703
Si       6.43046825       4.32172358       2.13694703
Si       9.72252370       5.16218104       3.66580928
Si       7.28591481       5.83886199       3.66580928
Si       7.91819635       3.39035632       3.66580928
Si       9.93979321       6.77621359      11.14508953
Si       5.77948685       5.22000663      11.14508953
Si       9.20735479       2.39517912      11.14508953
Si      10.47295489       4.48179726      10.61083548
Si       7.49992884       6.82894636      10.61083548
Si       6.95375113       3.08065573      10.61083548
Si       9.50651291       8.80289487       9.86749036
Si       4.24096953       3.83143425       9.86749036
Si      11.17915242       1.75707023       9.86749036
Si       5.46829653       1.74272351       2.07183084
Si       4.06548678       3.86432196       2.07183084
Si       2.92953350       1.58865385       2.07183084
24
Lattice="8.222140921752368 -2.1437812145113243e-13 -2.786569121893107e-13 4.111070460876368 7.120582911733039 2.5086169665982745e-13 4.111070460876695 2.373527637243553 13.175825999417718" Properties=species:S:1:pos:R:3 unique_starting_index=24 config_type=initial n_minim_iter=5 stress="-0.0012492385391410293 -1.3284145270268917e-16 2.0609854850514724e-16 -1.3284145270268917e-16 -0.0012492385391412134 1.6954196238761412e-16 2.0609854850514724e-16 1.6954196238761412e-16 -0.000905864006224379" pbc="T T T"
Si       9.46171965       4.15737533      12.84135779
Si       8.11302855       6.11540192      12.84135779
Si       7.09167333       3.96838787      12.84135779
Si       8.96780173       3.49233442       8.84019499
Si       8.93592983       6.02017691       8.84019499
Si       6.76268997       4.72865378       8.84019499
Si       9.56773045       3.38799849       2.13135807
Si       8.72632304       6.59189838       2.13135807
Si       6.37236805       4.26126825       2.13135807
Si       9.64897328       5.13706253       3.68759012
Si       7.17096773       5.78772472       3.68759012
Si       7.84648052       3.31637787       3.68759012
Si       9.82837522       6.78042528      11.20997581
Si       5.65807287       5.12140998      11.20997581
Si       9.17997344       2.33932985      11.20997581
Si      10.34614702       4.49493186      10.62216961
Si       7.37848233       6.71256022      10.62216961
Si       6.94179218       3.03367303      10.62216961
Si       9.47245475       8.70654897       9.89788422
Si       4.16796107       3.85011196       9.89788422
Si      11.02600572       1.68450418       9.89788422
Si       5.43601681       1.76628911       2.09400885
Si       3.97448046       3.82458410       2.09400885
Si       2.92271288       1.52970900       2.09400885
24
Lattice="8.161408729956667 -3.1018395408394326e-13 -2.766384448885501e-13 4.0807043649786 7.067987290810407 2.4894558343629065e-13 4.080704364978873 2.3559957636026385 13.269200322065085" Properties=species:S:1:pos:R:3 unique_starting_index=24 config_type=initial n_minim_iter=6 stress="0.001978929991243626 -3.4520855359516697e-16 1.5896998938668192e-16 -3.4520855359516697e-16 0.001978929991243849 3.115579719001759e-16 1.5896998938668192e-16 3.115579719001759e-16 0.002120809212072387" pbc="T T T"
Si       9.45010843       4.17669114      12.92393351
Si       7.98064180       6.09568840      12.92393351
Si       7.05347474       3.86359433      12.92393351
Si       8.83744481       3.43678194       8.91063934
Si       8.92775377       5.93506074       8.91063934
Si       6.71902639       4.76413119       8.91063934
Si       9.51068371       3.37010943       2.13204908
Si       8.64887441       6.55143899       2.13204908
Si       6.32466685       4.21442546       2.13204908
Si       9.59404979       5.12399823       3.72498454
Si       7.08827912       5.74669173       3.72498454
Si       7.80189606       3.26528392       3.72498454
Si       9.73875950       6.77811368      11.32319891
Si       5.58341826       5.04495629      11.32319891
Si       9.16204721       2.31290391      11.32319891
Si      10.22909811       4.52349664      10.67217268
Si       7.29080459       6.59691051      10.67217268
Si       6.96432227       3.01556674      10.67217268
Si       9.43805321       8.64300924       9.94765665
Si       4.11872447       3.85208923       9.94765665
Si      10.92744728       1.64087541       9.94765665
Si       5.41723862       1.78784054       2.12449890
Si       3.90447328       3.79754599       2.12449890
Si       2.92039998       1.48260006       2.12449890
24
Lattice="8.06744955383638 -3.7799723964534515e-13 -2.736226272050954e-13 4.033724776918514 6.9866162573715505 2.4567577958339935e-13 4.033724776918753 2.3288720857896554 13.404329397102888" Properties=species:S:1:pos:R:3 unique_starting_index=24 config_type=initial n_minim_iter=7 stress="0.002459182916273323 -2.4598999479808186e-16 1.6134827615788167e-16 -2.4598999479808186e-16 0.0024591829162735114 2.0631418918548803e-16 1.6134827615788167e-16 2.0631418918548803e-16 0.0024049251924624817" pbc="T T T"
Si       9.40545575       4.15903083      13.04284940
Si       7.83034408       6.06584820      13.04284940
Si       6.96654763       3.74835280      13.04284940
Si       8.69527339       3.36226539       9.01799974
Si       8.87545437       5.84919495       9.01799974
Si       6.63161970       4.76177148       9.01799974
Si       9.41720026       3.32750205       2.14028688
Si       8.54459687       6.49178363       2.14028688
Si       6.24055033       4.15394614       2.14028688
Si       9.48430268       5.08277568       3.77709694
Si       6.99093410       5.67225922       3.77709694
Si       7.72711067       3.21819692       3.77709694
Si       9.59770853       6.71035904      11.48320364
Si       5.52470264       4.95667989      11.48320364
Si       9.07993628       2.30619289      11.48320364
Si      10.05642332       4.52149150      10.75620054
Si       7.19096014       6.44837231      10.75620054
Si       6.95496400       3.00336801      10.75620054
Si       9.32866147       8.55303560      10.01192224
Si       4.06342146       3.80234002      10.01192224
Si      10.81026453       1.61785621      10.01192224
Si       5.36891607       1.78948602       2.15850850
Si       3.83325036       3.75487469       2.15850850
Si       2.89900670       1.44225485       2.15850850
24
Lattice="8.054828274832945 -3.310715899806443e-13 -2.7313167327412817e-13 4.027414137416754 6.975685909126347 2.4504239439714877e-13 4.027414137417022 2.325228636374601 13.436851126795938" Properties=species:S:1:pos:R:3 unique_starting_index=24 config_type=initial n_minim_iter=8 stress="0.0005057115227322668 -4.1130310420582013e-16 2.273416514487658e-16 -4.1130310420582013e-16 0.0005057115227321916 1.0881812553175076e-16 2.273416514487658e-16 1.0881812553175076e-16 0.0013103053540192591" pbc="T T T"
Si       9.38227853       4.12562729      13.07484907
Si       7.84561845       6.06247791      13.07484907
Si       6.93658664       3.76326593      13.07484907
Si       8.72736005       3.34967391       9.04826002
Si       8.84507302       5.88327855       9.04826002
Si       6.59205055       4.71841866       9.04826002
Si       9.40031097       3.30678048       2.14984582
Si       8.54574437       6.48751786       2.14984582
Si       6.21842829       4.15707279       2.14984582
Si       9.44776912       5.06287125       3.78848226
Si       7.00119607       5.65057244       3.78848226
Si       7.71551844       3.23792743       3.78848226
Si       9.56549801       6.64991283      11.52072047
Si       5.56791330       4.95900786      11.52072047
Si       9.03107231       2.34245044      11.52072047
Si      10.03960088       4.47756514      10.78349599
Si       7.21217015       6.45576683      10.78349599
Si       6.91271259       3.01803915      10.78349599
Si       9.26517608       8.55069765      10.02024853
Si       4.07194632       3.74852903      10.02024853
Si      10.82736122       1.65214444      10.02024853
Si       5.34835304       1.76461910       2.15353233
Si       3.85244599       3.74950005       2.15353233
Si       2.88144218       1.46156607       2.15353233
24
Lattice="7.974022017462712 -4.0326595420894294e-13 -2.702540460577051e-13 3.9870110087317014 6.905705637458947 2.4210497794096074e-13 3.9870110087319257 2.301901879152114 13.343323795860087" Properties=species:S:1:pos:R:3 unique_starting_index=24 config_type=initial n_minim_iter=9 stress="-0.003379801249846152 -3.345325097468785e-16 1.4445035199549044e-16 -3.345325097468785e-16 -0.0033798012498463845 9.277459845735474e-17 1.4445035199549044e-16 9.277459845735474e-17 -0.00337717135985637" pbc="T T T"
Si       9.32150997       4.14568036      12.99012177
Si       7.69702375       5.99982426      12.99012177
Si       6.90353114       3.66590597      12.99012177
Si       8.61252698       3.26156172       9.00210328
Si       8.81718444       5.82788630       9.00210328
Si       6.49235343       4.72196257       9.00210328
Si       9.31245263       3.27132778       2.12380584
Si       8.45876396       6.42915667       2.12380584
Si       6.15084826       4.11092615       2.12380584
Si       9.35802925       5.03362443       3.77932866
Si       6.90978199       5.58747885       3.77932866
Si       7.65425362       3.19030731       3.77932866
Si       9.42810252       6.60495708      11.49454354
Si       5.51393136       4.86249775      11.49454354
Si       8.98003098       2.34395576      11.49454354
Si       9.92033917       4.44897304      10.66087057
Si       7.13494998       6.36677921      10.66087057
Si       6.86677571       2.99565834      10.66087057
Si       9.18263788       8.47752891       9.91544403
Si       4.01496890       3.71363322       9.91544403
Si      10.72445808       1.62024846       9.91544403
Si       5.31145277       1.77249756       2.13791047
Si       3.78326692       3.71360425       2.13791047
Si       2.86631214       1.41960314       2.13791047
24
Lattice="7.987549478577578 -4.654210980260922e-13 -2.707346394092113e-13 3.9937747392891874 6.9174207624331 2.422897851644945e-13 3.993774739289371 2.305806920810149 13.248750542433779" Properties=species:S:1:pos:R:3 unique_starting_index=24 config_type=initial n_minim_iter=10 stress="-0.0008601114988274664 -1.3604105631234882e-16 -1.0343366823302329e-16 -1.3604105631234882e-16 -0.00086011149882735 2.0171081928140905e-16 -1.0343366823302329e-16 2.0171081928140905e-16 -0.0020460950478971888" pbc="T T T"
Si       9.33651000       4.22880604      12.91197102
Si       7.64458970       5.97125183      12.91197102
Si       6.98154754       3.63478297      12.91197102
Si       8.63052614       3.20949096       8.94650720
Si       8.88033439       5.86950941       8.94650720
Si       6.45178671       4.75584047       8.94650720
Si       9.32000095       3.27270512       2.10588035
Si       8.48085192       6.43500503       2.10588035
Si       6.16179437       4.12713069       2.10588035
Si       9.37875481       5.05802954       3.76985705
Si       6.90533868       5.59322516       3.76985705
Si       7.67855375       3.18358614       3.76985705
Si       9.40248961       6.62116475      11.45680430
Si       5.53975648       4.83221249      11.45680430
Si       9.02040115       2.38146360      11.45680430
Si       9.95300623       4.43602760      10.54501507
Si       7.15688245       6.40154244      10.54501507
Si       6.85275856       2.99727080      10.54501507
Si       9.19816901       8.49977482       9.81861860
Si       4.01499274       3.71596062       9.81861860
Si      10.74948549       1.61910540       9.81861860
Si       5.33371727       1.78976477       2.10930017
Si       3.77070829       3.72425227       2.10930017
Si       2.87689746       1.40340304       2.10930017
24
Lattice="7.974665345729611 -5.029226571021404e-13 -2.704565645372034e-13 3.987332672865238 6.906262776081007 2.4121864295372373e-13 3.987332672865404 2.3020875920260977 13.356003784885315" Properties=species:S:1:pos:R:3 unique_starting_index=24 config_type=initial n_minim_iter=11 stress="0.002065598530362123 -1.3674338555856604e-16 7.878592412976983e-17 -1.3674338555856604e-16 0.0020655985303620066 -1.0384045172659318e-16 7.878592412976983e-17 -1.0384045172659318e-16 0.0038970326952188486" pbc="T T T"
Si       9.33856219       4.28295021      13.00629002
Si       7.57090512       5.94595698      13.00629002
Si       7.01452754       3.58361767      13.00629002
Si       8.62405171       3.16761338       9.01674274
Si       8.89407039       5.88484117       9.01674274
Si       6.40587275       4.76007031       9.01674274
Si       9.29632896       3.26187882       2.12480856
Si       8.47629549       6.41991764       2.12480856
Si       6.15137039       4.13072841       2.12480856
Si       9.36636584       5.05612844       3.81522254
Si       6.88741130       5.58344654       3.81522254
Si       7.67021770       3.17294988       3.81522254
Si       9.36213346       6.59073018      11.57338039
Si       5.56052341       4.81248032      11.57338039
Si       9.00133798       2.40931437      11.57338039
Si       9.93555659       4.42899284      10.62773841
Si       7.14593129       6.38994799      10.62773841
Si       6.84250696       2.99358403      10.62773841
Si       9.16570010       8.47751728       9.87728557
Si       4.02473452       3.69897049       9.87728557
Si      10.73356022       1.63603709       9.87728557
Si       5.33394954       1.79157187       2.12167667
Si       3.75614303       3.72354987       2.12167667
Si       2.87190425       1.39114035       2.12167667
24
Lattice="7.9717079915843865 -5.536015805339447e-13 -2.70526474915591e-13 3.985853995792669 6.903701632263232 2.4062413780366435e-13 3.9858539957928056 2.3012338774201586 13.291930442566356" Properties=species:S:1:pos:R:3 unique_starting_index=24 config_type=initial n_minim_iter=12 stress="0.0027170288374560106 -3.680446570602669e-16 5.67623512332123e-17 -3.680446570602669e-16 0.0027170288374554277 -2.0337313008691036e-17 5.67623512332123e-17 -2.0337313008691036e-17 0.004111576036799986" pbc="T T T"
Si       9.35106014       4.35585332      12.93138335
Si       7.49560549       5.92032898      12.93138335
Si       7.06845715       3.53122028      12.93138335
Si       8.62888538       3.13164984       8.96598180
Si       8.91688418       5.90700902       8.96598180
Si       6.36935322       4.76874371       8.96598180
Si       9.27957006       3.25662972       2.11873820
Si       8.48330609       6.40802855       2.11873820
Si       6.15224663       4.14274431       2.11873820
Si       9.37028273       5.05942052       3.81259898
Si       6.87668712       5.58519263       3.81259898
Si       7.66815293       3.16278943       3.81259898
Si       9.33817510       6.56932576      11.53593626
Si       5.58512465       4.80243398      11.53593626
Si       8.99182304       2.43564284      11.53593626
Si       9.93912294       4.42930254      10.57857447
Si       7.13796520       6.39288169      10.57857447
Si       6.83803464       2.98521836      10.57857447
Si       9.15034011       8.45806068       9.81558136
Si       4.04334971       3.69539665       9.81558136
Si      10.72143295       1.65394524       9.81558136
Si       5.34221357       1.79643757       2.10613252
Si       3.74483984       3.72827388       2.10613252
Si       2.87050738       1.37898950       2.10613252
24
Lattice="7.975173590418458 -5.766215299361793e-13 -2.7081554441676645e-13 3.987586795209725 6.906702928892854 2.4051732567562757e-13 3.9875867952098445 2.302234309630031 13.187319525921778" Properties=species:S:1:pos:R:3 unique_starting_index=24 config_type=initial n_minim_iter=13 stress="0.0021296137183075587 -3.437417112563111e-16 3.5765033541119074e-17 -3.437417112563111e-16 0.0021296137183070504 2.1856409386239434e-16 3.5765033541119074e-17 2.1856409386239434e-16 0.0014549582428836976" pbc="T T T"
Si       9.35906661       4.39483909      12.82163191
Si       7.46477078       5.90776990      12.82163191
Si       7.10168218       3.51079618      12.82163191
Si       8.64060980       3.13081720       8.88402149
Si       8.91867425       5.91757899       8.88402149
Si       6.36623552       4.76500898       8.88402149
Si       9.27208906       3.25788790       2.10783956
Si       8.49288817       6.40092072       2.10783956
Si       6.16054235       4.15459655       2.10783956
Si       9.38261739       5.05771517       3.78871889
Si       6.87892787       5.59672743       3.78871889
Si       7.66397432       3.15896257       3.78871889
Si       9.34512352       6.56283513      11.43799244
Si       5.59420269       4.81169681      11.43799244
Si       8.98619337       2.43887324      11.43799244
Si       9.95787435       4.43494257      10.50531432
Si       7.13063628       6.40630087      10.50531432
Si       6.83700895       2.97216173      10.50531432
Si       9.15394456       8.44237825       9.74513665
Si       4.06206007       3.70635941       9.74513665
Si      10.70951495       1.66466751       9.74513665
Si       5.34814502       1.79731840       2.08737876
Si       3.74457689       3.73297025       2.08737876
Si       2.87003728       1.37641359       2.08737876
24
Lattice="7.918822591649152 -6.080142674389831e-13 -2.685482047414648e-13 3.959411295825102 6.857901532429994 2.384508301268755e-13 3.9594112958252015 2.285967177475736 13.132589112746992" Properties=species:S:1:pos:R:3 unique_starting_index=24 config_type=initial n_minim_iter=14 stress="-0.002922779512879892 -1.5707214735688716e-16 5.728696751965756e-17 -1.5707214735688716e-16 -0.002922779512881008 1.2733896584532577e-16 5.728696751965756e-17 1.2733896584532577e-16 -0.0026634603841252454" pbc="T T T"
Si       9.31053047       4.40017790      12.76772143
Si       7.37171331       5.86306696      12.76772143
Si       7.07422280       3.45255752      12.76772143
Si       8.58051473       3.11292673       8.83968863
Si       8.85151340       5.87448037       8.83968863
Si       6.32443846       4.72839528       8.83968863
Si       9.19719232       3.23367019       2.10208202
Si       8.43860770       6.34816710       2.10208202
Si       6.12066657       4.13396509       2.10208202
Si       9.32920241       5.01508176       3.78321995
Si       6.82985498       5.57178540       3.78321995
Si       7.59740920       3.12893522       3.78321995
Si       9.27806997       6.51842998      11.38766402
Si       5.55348346       4.77582931      11.38766402
Si       8.92491316       2.42154310      11.38766402
Si       9.89974804       4.41784960      10.45159680
Si       7.06180039       6.36450849      10.45159680
Si       6.79491816       2.93344429      10.45159680
Si       9.09761898       8.36158288       9.71347923
Si       4.04749171       3.69797771       9.71347923
Si      10.61135590       1.65624179       9.71347923
Si       5.31619062       1.79062234       2.07784896
Si       3.71000206       3.70864495       2.07784896
Si       2.85204003       1.35863355       2.07784896
24
Lattice="7.9304139544934795 -6.011834618974444e-13 -2.686807400350561e-13 3.96520697724726 6.8679399471176685 2.384384719730043e-13 3.9652069772473637 2.2893133157049625 13.137882425566177" Properties=species:S:1:pos:R:3 unique_starting_index=24 config_type=initial n_minim_iter=15 stress="-0.0019694030474523123 -2.622099798041167e-16 1.5205075751954696e-17 -2.622099798041167e-16 -0.001969403047453464 1.7377229430805368e-16 1.5205075751954696e-17 1.7377229430805368e-16 -0.0017535961315402486" pbc="T T T"
Si       9.32081137       4.38963016      12.77704302
Si       7.39889020       5.87724435      12.77704302
Si       7.07153910       3.46900470      12.77704302
Si       8.60020855       3.14041092       8.83979954
Si       8.84104721       5.87779362       8.83979954
Si       6.34998492       4.71767467       8.83979954
Si       9.20765363       3.23701627       2.10526271
Si       8.45366198       6.35555382       2.10526271
Si       6.12992506       4.14330912       2.10526271
Si       9.34532763       5.01183740       3.78344682
Si       6.84778480       5.58737243       3.78344682
Si       7.59812825       3.13666938       3.78344682
Si       9.29924048       6.52837568      11.37826682
Si       5.55746769       4.78919065      11.37826682
Si       8.93453250       2.41831288      11.37826682
Si       9.92120785       4.42316527      10.45493249
Si       7.06964971       6.38043540      10.45493249
Si       6.80038312       2.93227854      10.45493249
Si       9.11191318       8.36710668       9.73079341
Si       4.05874358       3.70759495       9.73079341
Si      10.62058391       1.66117758       9.73079341
Si       5.32019246       1.78836549       2.07839302
Si       3.72154699       3.71323908       2.07839302
Si       2.85388030       1.36633470       2.07839302
24
Lattice="7.936830794707133 -6.258901077256759e-13 -2.6900527524689007e-13 3.9684153973541085 6.8734970937547075 2.383254084680888e-13 3.9684153973541973 2.2911656979172985 13.150642686284101" Properties=species:S:1:pos:R:3 unique_starting_index=24 config_type=initial n_minim_iter=16 stress="-0.0003206146048538141 -1.9576222950081197e-16 3.342659412820188e-17 -1.9576222950081197e-16 -0.000320614604854646 2.1665385083093813e-16 3.342659412820188e-17 2.1665385083093813e-16 0.00012304990885720902" pbc="T T T"
Si       9.34003742       4.39771133      12.79414369
Si       7.39511236       5.88985401      12.79414369
Si       7.07534142       3.45942816      12.79414369
Si       8.61784423       3.15803604       8.84735256
Si       8.82979925       5.88425401       8.84735256
Si       6.36284772       4.70470345       8.84735256
Si       9.20792336       3.23102976       2.10863775
Si       8.47154526       6.35878066       2.10863775
Si       6.13102257       4.15718308       2.10863775
Si       9.35871398       5.00245205       3.79657233
Si       6.86205325       5.60365802       3.79657233
Si       7.58972397       3.14088343       3.79657233
Si       9.29341515       6.52850258      11.39220613
Si       5.57310414       4.78408232      11.39220613
Si       8.94397191       2.43440861      11.39220613
Si       9.93247643       4.42841505      10.44571178
Si       7.07230265       6.38756939      10.44571178
Si       6.80571211       2.93100906      10.44571178
Si       9.11208738       8.36407487       9.74462919
Si       4.07411579       3.70926172       9.74462919
Si      10.62428803       1.67365691       9.74462919
Si       5.32513889       1.78848485       2.07807476
Si       3.72538724       3.71746313       2.07807476
Si       2.85471888       1.36754843       2.07807476
24
Lattice="7.948390471887982 -6.863488859572653e-13 -2.6998174187251344e-13 3.9741952359445865 6.883508067852836 2.383371790409612e-13 3.9741952359446344 2.2945026892833247 13.112376462735487" Properties=species:S:1:pos:R:3 unique_starting_index=24 config_type=initial n_minim_iter=17 stress="0.001461848930561353 -2.768535782355227e-16 -2.37391497492058e-16 -2.768535782355227e-16 0.0014618489305604024 3.602655841991598e-16 -2.37391497492058e-16 3.602655841991598e-16 0.0012162141341283783" pbc="T T T"
Si       9.37273313       4.42586574      12.75552146
Si       7.37750142       5.90409213      12.75552146
Si       7.09493567       3.43705758      12.75552146
Si       8.64976642       3.19307348       8.80904157
Si       8.80661419       5.89438072       8.80904157
Si       6.38878961       4.67956125       8.80904157
Si       9.20144622       3.21704816       2.10768317
Si       8.51001161       6.36016210       2.10768317
Si       6.13371239       4.18980519       2.10768317
Si       9.38861044       4.98023551       3.80616710
Si       6.88946446       5.64065740       3.80616710
Si       7.56709532       3.14612255       3.80616710
Si       9.27649083       6.52493398      11.36396906
Si       5.60777615       4.77120973      11.36396906
Si       8.96090325       2.47087174      11.36396906
Si       9.95442536       4.44994740      10.38899428
Si       7.06579997       6.39581154      10.38899428
Si       6.82494489       2.92125651      10.38899428
Si       9.11130146       8.34922745       9.72688983
Si       4.11048635       3.71600480       9.72688983
Si      10.62338242       1.70178320       9.72688983
Si       5.33761309       1.79134646       2.07095838
Si       3.72823160       3.72683530       2.07095838
Si       2.85673983       1.36532562       2.07095838
24
Lattice="7.952787557893841 -7.570664283189137e-13 -2.7004199966317227e-13 3.976393778947578 6.887316056036497 2.3839627849688584e-13 3.976393778947581 2.29577201867786 13.01347100764738" Properties=species:S:1:pos:R:3 unique_starting_index=24 config_type=initial n_minim_iter=18 stress="0.0008932653602524572 -3.359679362852652e-16 -3.4702668615835457e-16 -3.359679362852652e-16 0.0008932653602508622 2.2927436356602243e-16 -3.4702668615835457e-16 2.2927436356602243e-16 0.0007773833428613228" pbc="T T T"
Si       9.37064134       4.45296129      12.64825072
Si       7.36387605       5.88873280      12.64825072
Si       7.12384409       3.43293733      12.64825072
Si       8.65273041       3.21669955       8.71147609
Si       8.79346559       5.88513457       8.71147609
Si       6.41216548       4.67279730       8.71147609
Si       9.18305902       3.19929802       2.09763028
Si       8.54337145       6.35311338       2.09763028
Si       6.13193101       4.22222002       2.09763028
Si       9.41436541       4.95658494       3.79310844
Si       6.90586314       5.67478713       3.79310844
Si       7.53813293       3.14325935       3.79310844
Si       9.23387305       6.53360226      11.29188037
Si       5.63037227       4.72996751      11.29188037
Si       8.99411617       2.51106166      11.29188037
Si       9.96547876       4.49133733      10.29965029
Si       7.03322272       6.38468911      10.29965029
Si       6.85966000       2.89860500      10.29965029
Si       9.11723068       8.33677058       9.66200289
Si       4.12710387       3.72736809       9.66200289
Si      10.61402693       1.71049275       9.66200289
Si       5.35327783       1.80714283       2.06488793
Si       3.71111626       3.73250318       2.06488793
Si       2.86478606       1.34766936       2.06488793
24
Lattice="7.961090903235244 -8.125675584922931e-13 -2.7028447055953387e-13 3.9805454516183274 6.894506964038519 2.3874279662216516e-13 3.980545451618295 2.298168988011854 12.916481524727757" Properties=species:S:1:pos:R:3 unique_starting_index=24 config_type=initial n_minim_iter=19 stress="-0.00034513752689445263 -3.4827715497159335e-16 -4.920354410614866e-16 -3.4827715497159335e-16 -0.00034513752689625663 2.6089466734832486e-16 -4.920354410614866e-16 2.6089466734832486e-16 -0.00013342352837966042" pbc="T T T"
Si       9.37088475       4.47012177      12.55197294
Si       7.36549963       5.88036337      12.55197294
Si       7.14688714       3.43852811      12.55197294
Si       8.66888128       3.24341127       8.61976776
Si       8.77886382       5.88576577       8.61976776
Si       6.43552642       4.65983620       8.61976776
Si       9.17126235       3.18446236       2.08920062
Si       8.57872453       6.35031500       2.08920062
Si       6.13328463       4.25423588       2.08920062
Si       9.43849705       4.93558994       3.77508718
Si       6.92858622       5.70618325       3.77508718
Si       7.51618825       3.14724005       3.77508718
Si       9.20534485       6.54327719      11.21205018
Si       5.65286431       4.70042390      11.21205018
Si       9.02506235       2.54531215      11.21205018
Si       9.98634381       4.52164725      10.21241460
Si       7.01314773       6.38760380      10.21241460
Si       6.88377999       2.87976219      10.21241460
Si       9.12519472       8.33373398       9.60084031
Si       4.14235832       3.73578345       9.60084031
Si      10.61571848       1.71949581       9.60084031
Si       5.36646300       1.81833619       2.05613312
Si       3.70313328       3.73832519       2.05613312
Si       2.87203889       1.33784490       2.05613312
24
Lattice="7.985112892817542 -9.435368303176053e-13 -2.7108291791369103e-13 3.9925564464095906 6.915310617266168 2.3995673485505006e-13 3.9925564464094747 2.3051035390877037 12.716220332553139" Properties=species:S:1:pos:R:3 unique_starting_index=24 config_type=initial n_minim_iter=20 stress="-0.0003104215453129792 -1.8909960096964969e-16 -4.809707242054133e-16 -1.8909960096964969e-16 -0.0003104215453147197 2.0016730336753888e-16 -4.809707242054133e-16 2.0016730336753888e-16 -0.0011550586324261848" pbc="T T T"
Si       9.39225110       4.52461765      12.36284880
Si       7.35566561       5.87161923      12.36284880
Si       7.20742077       3.43438367      12.36284880
Si       8.70472200       3.28656726       8.43389013
Si       8.77161325       5.89522676       8.43389013
Si       6.47900223       4.64882653       8.43389013
Si       9.15668150       3.15806789       2.07172513
Si       8.65691722       6.35088485       2.07172513
Si       6.14173876       4.32166781       2.07172513
Si       9.49394642       4.90328197       3.73366323
Si       6.97688503       5.77035780       3.73366323
Si       7.48450603       3.15698078       3.73366323
Si       9.15777156       6.57884660      11.04460490
Si       5.69389093       4.64143952      11.04460490
Si       9.10367499       2.61033443      11.04460490
Si      10.03723771       4.59333294      10.02930347
Si       6.97366312       6.39583637      10.02930347
Si       6.94443666       2.84145124      10.02930347
Si       9.15695225       8.34312702       9.46922907
Si       4.16638892       3.75858976       9.46922907
Si      10.63199631       1.72890376       9.46922907
Si       5.39968219       1.84842170       2.04012185
Si       3.68449085       3.75205110       2.04012185
Si       2.89349510       1.31483712       2.04012185
24
Lattice="8.002284752634534 -1.1290004699350707e-12 -2.73495417545095e-13 4.001142376318247 6.930181884097819 2.411005942218179e-13 4.001142376318012 2.3100606280315414 12.47745264307802" Properties=species:S:1:pos:R:3 unique_starting_index=24 config_type=initial n_minim_iter=21 stress="-0.000715413396588025 -2.8607309107427987e-16 -5.981382409001208e-16 -2.8607309107427987e-16 -0.0007154133965896268 3.022780165922284e-16 -5.981382409001208e-16 3.022780165922284e-16 -0.0008918497552826031" pbc="T T T"
Si       9.40977514       4.60671446      12.15640343
Si       7.31014939       5.84574708      12.15640343
Si       7.28692854       3.40790154      12.15640343
Si       8.76151871       3.31265610       8.20252530
Si       8.75496501       5.93136973       8.20252530
Si       6.49036934       4.61633725       8.20252530
Si       9.11332204       3.10361922       2.06049934
Si       8.76009460       6.34055879       2.06049934
Si       6.13343642       4.41618507       2.06049934
Si       9.53796744       4.84638272       3.67675463
Si       7.03849443       5.83693075       3.67675463
Si       7.43039119       3.17704961       3.67675463
Si       9.06187934       6.60419619      10.83922900
Si       5.75422736       4.54571963      10.83922900
Si       9.19074635       2.71044727      10.83922900
Si      10.08930940       4.67950728       9.80914662
Si       6.90734183       6.39784461       9.80914662
Si       7.01020183       2.78301120       9.80914662
Si       9.16937394       8.36532822       9.29950093
Si       4.17529499       3.75824666       9.29950093
Si      10.66218413       1.73678820       9.29950093
Si       5.43248797       1.88754836       2.03002558
Si       3.65137514       3.76089841       2.03002558
Si       2.91956282       1.28173443       2.03002558
