8
Lattice="7.003774754596135 0.4273707633579024 0.4034121176163564 0.8548768260696995 6.964531010394042 0.4034121176163559 0.854876826069701 0.8041030273578639 6.929707919730376" Properties=species:S:1:pos:R:3 unique_starting_index=114 config_type=initial n_minim_iter=1 energy=-1298.3277807348163 free_energy=-1298.3277807348163 pbc="T T T"
Si       4.91024532       6.88304112       0.97579672
Si       1.66855355       4.81722336       6.81536732
Si       7.17043771       1.23236209       4.41645221
Si       5.92457346       1.13259293       1.14413607
Si       1.56755407       5.83964156       1.06477481
Si       1.49278205       1.47903330       5.76857409
Si       1.24087640       1.16717688       1.10174429
Si       7.68737093       7.23079401       6.82543163
8
Lattice="6.971560756960702 0.4110495033338837 0.3880058366234241 0.836616111956317 6.933375409091924 0.388005836623422 0.8366161119563169 0.7869268739606606 6.899491951418809" Properties=species:S:1:pos:R:3 unique_starting_index=114 config_type=initial n_minim_iter=2 stress="-0.004597920981398708 -0.0008468234514480026 -0.0007993500517249831 -0.0008468234514480026 -0.004494154186184576 -0.0007518741611766173 -0.0007993500517249831 -0.0007518741611766173 -0.004407349890586574" pbc="T T T"
Si       4.87374946       6.84855809       0.94892392
Si       1.63756026       4.78255796       6.78249026
Si       7.13378737       1.20355619       4.38373911
Si       5.89790126       1.11003137       1.12349294
Si       1.54405494       5.81435910       1.04344039
Si       1.46863161       1.45696976       5.74456313
Si       1.23176133       1.15860318       1.09365124
Si       7.62518301       7.17229963       6.77021647
8
Lattice="7.039451150817338 0.35430080292551147 0.3344385003277859 0.7841253652912198 7.004609123655947 0.3344385003277805 0.7841253652912166 0.7375537163143945 6.973694329496841" Properties=species:S:1:pos:R:3 unique_starting_index=114 config_type=initial n_minim_iter=3 stress="0.00022337326839702394 -0.003832465415767212 -0.0036176152456441272 -0.003832465415767212 0.0006929902272621541 -0.003402753802804433 -0.0036176152456441272 -0.003402753802804433 0.0010858400712882377" pbc="T T T"
Si       4.86085037       6.94603252       0.84759677
Si       1.54140889       4.77552571       6.88564210
Si       7.23029053       1.10131194       4.37077398
Si       5.98840459       1.02012992       1.04830710
Si       1.46949788       5.90960012       0.95802127
Si       1.38443304       1.38743160       5.84456852
Si       1.23758631       1.16408220       1.09882310
Si       7.56537948       7.11604802       6.71711836
8
Lattice="7.076550305124202 0.40391458755798915 0.3812709082451981 0.8359150375065444 7.038604781138525 0.38127090824518406 0.8359150375065331 0.7862674385071857 7.00493456683811" Properties=species:S:1:pos:R:3 unique_starting_index=114 config_type=initial n_minim_iter=4 stress="0.0034398067572043076 0.0005606637213909283 0.0005292325973350647 0.0005606637213909283 0.003371104978265449 0.0004977998241576081 0.0005292325973350647 0.0004977998241576081 0.0033136337080493456" pbc="T T T"
Si       4.93449268       7.08290656       0.88863064
Si       1.59467457       4.84604262       7.01992391
Si       7.37141189       1.14603125       4.43343511
Si       6.08598706       1.02322639       1.05947588
Si       1.48677286       6.00630717       0.96046894
Si       1.39349122       1.40418399       5.94097378
Si       1.27026069       1.19481595       1.12783389
Si       7.65194432       7.19747150       6.79397719
8
Lattice="7.058213249032249 0.3780617152832153 0.3568673625536727 0.8089891755550493 7.021883041123096 0.35686736255364626 0.8089891755550263 0.7609407874047602 6.989646977904668" Properties=species:S:1:pos:R:3 unique_starting_index=114 config_type=initial n_minim_iter=5 stress="0.0020136467577977148 0.0014446703780621793 0.001363681342851998 0.0014446703780621793 0.0018366218832308332 0.0012826880583258725 0.001363681342851998 0.0012826880583258725 0.001688534824086408" pbc="T T T"
Si       4.88794292       7.12075946       0.81002235
Si       1.51567448       4.80424577       7.06224405
Si       7.40634726       1.06474259       4.38926885
Si       6.12167459       0.96676262       1.01331125
Si       1.43970576       6.04494533       0.90675945
Si       1.33931555       1.36034787       5.98264297
Si       1.26816024       1.19284025       1.12596895
Si       7.54790176       7.09960835       6.70160031
8
Lattice="6.962870945196883 0.28403053595552397 0.26810762410901195 0.7093034641962299 6.932469526835398 0.2681076241089734 0.7093034641961956 0.667175721089332 6.905497230163491" Properties=species:S:1:pos:R:3 unique_starting_index=114 config_type=initial n_minim_iter=6 stress="-0.007132313982801165 -0.0013369008547448311 -0.0012619534397213946 -0.0013369008547448311 -0.00696849481012793 -0.001187002092370848 -0.0012619534397213946 -0.001187002092370848 -0.006831454749674264" pbc="T T T"
Si       4.72333849       7.00875502       0.62124310
Si       1.31105290       4.65186949       6.96130498
Si       7.28448630       0.86720352       4.24296286
Si       6.03858710       0.88963694       0.94206829
Si       1.35919684       5.96663468       0.83386763
Si       1.25725312       1.28471581       5.90866318
Si       1.22688399       1.15401552       1.08932076
Si       7.25502102       6.82412271       6.44155855
8
Lattice="7.019201847536019 0.23706919950344874 0.22377896663284305 0.6658748587817583 6.991566852590967 0.22377896663279298 0.6658748587817125 0.6263264758849022 6.967050970515541" Properties=species:S:1:pos:R:3 unique_starting_index=114 config_type=initial n_minim_iter=7 stress="0.004132871346127249 -0.0008685949975318991 -0.0008199010726710472 -0.0008685949975318991 0.004239305950742298 -0.0007712045929461078 -0.0008199010726710472 -0.0007712045929461078 0.004328341955580362" pbc="T T T"
Si       4.71744210       7.07512368       0.50124676
Si       1.19493724       4.65307625       7.03447865
Si       7.35037016       0.74683354       4.23995066
Si       6.08133426       0.85650077       0.91340899
Si       1.33134682       6.01116832       0.80243815
Si       1.22679311       1.25867980       5.95493407
Si       1.24018965       1.16653092       1.10113454
Si       7.20248280       6.77470490       6.39491113
8
Lattice="6.98957763079879 0.24806461475027974 0.23415797270698005 0.6750380675635826 6.961325672412848 0.23415797270691788 0.6750380675635256 0.6349454531423082 6.936261914396705" Properties=species:S:1:pos:R:3 unique_starting_index=114 config_type=initial n_minim_iter=8 stress="0.00031482553640945464 0.0014050426268262895 0.0013262751456738755 0.0014050426268262895 0.00014265650840737548 0.0012475035317652183 0.0013262751456738755 0.0012475035317652183 -1.368477318886662e-06" pbc="T T T"
Si       4.71746053       7.06123352       0.46610485
Si       1.15912154       4.65528908       7.02263678
Si       7.33650712       0.71180005       4.24284226
Si       6.04416412       0.88351041       0.93177105
Si       1.34892460       5.97285152       0.82834471
Si       1.25147912       1.27477808       5.91518797
Si       1.25832205       1.18358638       1.11723386
Si       7.18786419       6.76095453       6.38193162
8
Lattice="6.98300510816661 0.19842925089397673 0.18730519530921394 0.6250936695158789 6.9578008316293944 0.18730519530913056 0.6250936695158021 0.5879674085339863 6.935443026607183" Properties=species:S:1:pos:R:3 unique_starting_index=114 config_type=initial n_minim_iter=9 stress="-0.0011233575868273228 -0.00019388728088794993 -0.00018301785070016054 -0.00019388728088794993 -0.0010995993149740927 -0.00017214785021687964 -0.00018301785070016054 -0.00017214785021687964 -0.0010797247486603314" pbc="T T T"
Si       4.65995903       7.07590940       0.32592187
Si       1.01676123       4.60640192       7.04536692
Si       7.34763911       0.56849075       4.19272643
Si       6.05149984       0.82901109       0.87495807
Si       1.28962592       5.98383413       0.77721006
Si       1.19753041       1.21867355       5.92909918
Si       1.26634488       1.19113271       1.12435714
Si       7.08763380       6.66667714       6.29293947
8
Lattice="6.998411716577971 0.20732124088608775 0.19569869533331374 0.6349111863307709 6.9726348274616115 0.19569869533322237 0.6349111863306864 0.5972018324313864 6.949768657144369" Properties=species:S:1:pos:R:3 unique_starting_index=114 config_type=initial n_minim_iter=10 stress="-0.0007183367740010272 -0.0003438657964001638 -0.0003245884861464777 -0.0003438657964001638 -0.0006762006574162358 -0.000305310164454324 -0.0003245884861464777 -0.000305310164454324 -0.0006409524268853495" pbc="T T T"
Si       4.67769583       7.08450213       0.33237264
Si       1.02476816       4.62368141       7.05357361
Si       7.35730043       0.57592076       4.20950425
Si       6.05587653       0.84364857       0.88046317
Si       1.29622120       5.98781494       0.79150595
Si       1.21240814       1.22436967       5.93224952
Si       1.27903987       1.20307370       1.13562872
Si       7.14101506       6.71688792       6.34033540
8
Lattice="7.0074189877337085 0.21711172387567393 0.2049403183313129 0.645234172072036 6.981026517173952 0.20494031833120893 0.6452341720719399 0.6069117038804539 6.957613811592046" Properties=species:S:1:pos:R:3 unique_starting_index=114 config_type=initial n_minim_iter=11 stress="-0.00036288260764124643 -0.00018568280095550174 -0.0001752733185346801 -0.00018568280095550174 -0.0003401296841729458 -0.00016486328995055552 -0.0001752733185346801 -0.00016486328995055552 -0.00032109612444692427" pbc="T T T"
Si       4.68824531       7.08829405       0.34292772
Si       1.03614923       4.63355338       7.05675095
Si       7.36173039       0.58705175       4.21917670
Si       6.05777799       0.86216376       0.88938355
Si       1.30629139       5.98910298       0.80947630
Si       1.23100496       1.23331934       5.93249979
Si       1.28561310       1.20925652       1.14146493
Si       7.18526400       6.75850878       6.37962297
8
Lattice="7.009506646259656 0.2189854759659174 0.20670902682386316 0.6472320849935376 6.982995681711207 0.20670902682374515 0.6472320849934289 0.6087909545275481 6.95947777396071" Properties=species:S:1:pos:R:3 unique_starting_index=114 config_type=initial n_minim_iter=12 stress="6.202717627330133e-05 -5.889050670353006e-05 -5.5589071723537665e-05 -5.889050670353006e-05 6.924341377696605e-05 -5.2287463523854874e-05 -5.5589071723537665e-05 -5.2287463523854874e-05 7.528003090417405e-05" pbc="T T T"
Si       4.68831022       7.08923614       0.34152724
Si       1.03481185       4.63370034       7.05777218
Si       7.36267468       0.58565402       4.21926457
Si       6.05662090       0.87118434       0.89237739
Si       1.30972278       5.98773348       0.81830935
Si       1.23993789       1.23620986       5.93062353
Si       1.28595474       1.20957788       1.14176827
Si       7.19614889       6.76874718       6.38928740
8
Lattice="7.008427330390391 0.22208478031073278 0.20963458242122485 0.6502595845449036 6.981728852348557 0.2096345824210795 0.6502595845447698 0.6116386414461081 6.9580444521541445" Properties=species:S:1:pos:R:3 unique_starting_index=114 config_type=initial n_minim_iter=13 stress="0.00023192491329253323 8.464894305373246e-05 7.99034756215259e-05 8.464894305373246e-05 0.00022155232674702787 7.515775920539109e-05 7.99034756215259e-05 7.515775920539109e-05 0.00021287532109322567" pbc="T T T"
Si       4.68688348       7.09278280       0.34047052
Si       1.03387563       4.63232829       7.06137385
Si       7.36612746       0.58450449       4.21768724
Si       6.05348497       0.88460659       0.89361367
Si       1.31153499       5.98448064       0.83163805
Si       1.25314325       1.23721640       5.92660797
Si       1.28288896       1.20669419       1.13904623
Si       7.20432338       6.77643616       6.39654534
8
Lattice="7.0100135736421105 0.2324565109790252 0.21942486802565617 0.6607089076131144 6.98267785821056 0.2194248680254728 0.6607089076129459 0.6214673466545765 6.958427673066248" Properties=species:S:1:pos:R:3 unique_starting_index=114 config_type=initial n_minim_iter=14 stress="5.407049301843791e-05 7.070407057468965e-05 6.674036054904299e-05 7.070407057468965e-05 4.5406662559384634e-05 6.277644255661902e-05 6.674036054904299e-05 6.277644255661902e-05 3.81590868898541e-05" pbc="T T T"
Si       4.70046390       7.11640003       0.35312650
Si       1.04867592       4.64502738       7.08422247
Si       7.39053097       0.59783737       4.22904847
Si       6.05492384       0.90385072       0.88773901
Si       1.30687601       5.98620767       0.85118875
Si       1.27243935       1.23136645       5.92720543
Si       1.27704132       1.20119386       1.13385426
Si       7.22301426       6.79401693       6.41314052
8
Lattice="7.014555441978164 0.2439141987057889 0.23024023132412152 0.6724229023012751 6.986510547145597 0.23024023132389468 0.6724229023010658 0.6324856106944512 6.961630709953044" Properties=species:S:1:pos:R:3 unique_starting_index=114 config_type=initial n_minim_iter=15 stress="2.875081943522104e-05 9.371386141396238e-06 8.846020955071923e-06 9.371386141396238e-06 2.760248242966096e-05 8.320628204364941e-06 8.846020955071923e-06 8.320628204364941e-06 2.6641861213845295e-05" pbc="T T T"
Si       4.71668125       7.13670305       0.36858451
Si       1.06623895       4.66019909       7.10360091
Si       7.41178774       0.61413098       4.24307820
Si       6.05575347       0.92551449       0.88476455
Si       1.30520892       5.98714099       0.87298794
Si       1.29411332       1.22836830       5.92688093
Si       1.27367232       1.19802495       1.13086300
Si       7.25214381       6.82141639       6.43900395
8
Lattice="7.014906622174858 0.2444334810037303 0.2307304023639244 0.6729626886222759 6.98682931408738 0.23073040236368914 0.6729626886220585 0.6329933374237379 6.96192069888353" Properties=species:S:1:pos:R:3 unique_starting_index=114 config_type=initial n_minim_iter=16 stress="-9.759839676495536e-06 4.514047779921499e-06 4.260987718273031e-06 4.514047779921499e-06 -1.0312975363294631e-05 4.007914379652002e-06 4.260987718273031e-06 4.007914379652002e-06 -1.0775691337670722e-05" pbc="T T T"
Si       4.71754128       7.13691941       0.36868350
Si       1.06640263       4.66105070       7.10381121
Si       7.41205629       0.61427851       4.24391627
Si       6.05528757       0.92736232       0.88454698
Si       1.30506992       5.98668273       0.87484523
Si       1.29592919       1.22811778       5.92631639
Si       1.27394777       1.19828404       1.13110757
Si       7.25456407       6.82369291       6.44115284
8
Lattice="7.015332388742914 0.24398829086657411 0.2303101698366607 0.6725443688698126 6.9872815087505336 0.23031016983640698 0.6725443688695771 0.6325998629849648 6.962396359746316" Properties=species:S:1:pos:R:3 unique_starting_index=114 config_type=initial n_minim_iter=17 stress="-3.518636275106835e-05 5.756843760105353e-07 5.434111852880577e-07 5.756843760105353e-07 -3.525690510833276e-05 5.111363021303354e-07 5.434111852880577e-07 5.111363021303354e-07 -3.531591608315867e-05" pbc="T T T"
Si       4.71767486       7.13571921       0.36725741
Si       1.06492071       4.66127533       7.10269518
Si       7.41086650       0.61286671       4.24420484
Si       6.05493030       0.92877994       0.88324860
Si       1.30383582       5.98640040       0.87633532
Si       1.29732231       1.22679601       5.92594866
Si       1.27445966       1.19876553       1.13156206
Si       7.25529558       6.82438096       6.44180232
8
Lattice="7.014944396653135 0.24108831639103342 0.22757276956386874 0.6696260949717717 6.9870715866783994 0.22757276956358527 0.6696260949715083 0.6298549144678071 6.9623445411396" Properties=species:S:1:pos:R:3 unique_starting_index=114 config_type=initial n_minim_iter=18 stress="-2.0199555173068522e-05 -8.058272210190439e-06 -7.606520931218847e-06 -8.058272210190439e-06 -1.9212122573171856e-05 -7.154745948450051e-06 -7.606520931218847e-06 -7.154745948450051e-06 -1.8386103122233314e-05" pbc="T T T"
Si       4.71493281       7.13241021       0.36377727
Si       1.06109484       4.65876254       7.09959224
Si       7.40739601       0.60924629       4.24187506
Si       6.05614229       0.92726141       0.87845351
Si       1.29904443       5.98790822       0.87509565
Si       1.29588074       1.22208396       5.92752542
Si       1.27414227       1.19846699       1.13128026
Si       7.24805421       6.81756968       6.43537289
8
Lattice="7.01481679048503 0.2401349923778608 0.22667288943191802 0.6686667516555913 6.987002518524349 0.22667288943161945 0.6686667516553139 0.628952549540731 6.962327447276185" Properties=species:S:1:pos:R:3 unique_starting_index=114 config_type=initial n_minim_iter=19 stress="6.689397136574079e-06 -2.264920855991033e-06 -2.137948117367333e-06 -2.264920855991033e-06 6.966932646655508e-06 -2.0109687153721143e-06 -2.137948117367333e-06 -2.0109687153721143e-06 7.199100117637901e-06" pbc="T T T"
Si       4.71395461       7.13147615       0.36254575
Si       1.05975412       4.65786465       7.09873071
Si       7.40640388       0.60796384       4.24102831
Si       6.05662311       0.92698274       0.87648835
Si       1.29709957       5.98850910       0.87493069
Si       1.29563200       1.22015070       5.92813481
Si       1.27426813       1.19858537       1.13139200
Si       7.24551656       6.81518275       6.43311977
8
Lattice="7.014295421467388 0.23944381546606855 0.2260204602871762 0.6679449847874956 6.986524393264562 0.22602046028685713 0.6679449847871999 0.6282736506561406 6.961887715701866" Properties=species:S:1:pos:R:3 unique_starting_index=114 config_type=initial n_minim_iter=20 stress="9.709401013198754e-06 -1.2039444794185312e-06 -1.1364506739916881e-06 -1.2039444794185312e-06 9.856928174787599e-06 -1.0689533262736265e-06 -1.1364506739916881e-06 -1.0689533262736265e-06 9.980339438279946e-06" pbc="T T T"
Si       4.71268022       7.13027013       0.36189263
Si       1.05895599       4.65663677       7.09756434
Si       7.40512219       0.60724274       4.23986969
Si       6.05649536       0.92708565       0.87463123
Si       1.29524712       5.98849461       0.87514045
Si       1.29572690       1.21828896       5.92810825
Si       1.27479373       1.19907976       1.13185868
Si       7.24309058       6.81290086       6.43096580
