10
Lattice="5.604914182849953 -1.374304660644848 0.3204838587183805 -2.5001222620490724 5.20126570867028 0.3204838587183444 0.4202848332297599 0.5180423445032013 7.780084909461288" Properties=species:S:1:pos:R:3 unique_starting_index=134 config_type=initial n_minim_iter=1 energy=-1626.9044355356477 free_energy=-1626.9044355356477 pbc="T T T"
Si      -0.09955121       1.72761640       3.45911151
Si       1.71103614       0.25869709       3.45911151
Si      -0.84170353       0.94879356       1.14156815
Si       1.10191703      -0.62805484       1.14156815
Si       2.14089561       4.53732692       7.29772920
Si       3.99858888       3.03019085       7.29772920
Si      -0.31524256       3.50674466       5.13936322
Si       3.49641768       0.41436620       5.13936322
Si       2.68434514       1.22284999       1.42966782
Si       0.64327008       2.87876268       1.42966782
10
Lattice="5.62503837632501 -1.3796426899527998 0.3221647852343066 -2.509493820675186 5.2198574167368195 0.3221647852342704 0.4238432920955969 0.5224284946278919 7.7952287894468295" Properties=species:S:1:pos:R:3 unique_starting_index=134 config_type=initial n_minim_iter=2 stress="0.0009477988636239538 -0.0001747047576066282 -0.00021200881944645302 -0.0001747047576066282 0.0008741950722046137 -0.00026132169709124797 -0.00021200881944645302 -0.00026132169709124797 0.0018510737082504634" pbc="T T T"
Si      -0.09981849       1.73527131       3.46663722
Si       1.71858175       0.26001345       3.46663722
Si      -0.84405881       0.95236774       1.14351097
Si       1.10589994      -0.62962281       1.14351097
Si       2.15038684       4.55428514       7.31355106
Si       4.01322651       3.04297382       7.31355106
Si      -0.31461825       3.52034875       5.15040164
Si       3.50960094       0.41778129       5.15040164
Si       2.69369015       1.22826786       1.43359822
Si       0.64664533       2.88902378       1.43359822
10
Lattice="5.638451701627298 -1.3766194605278201 0.32887948982737836 -2.509300379532945 5.233605863643486 0.32887948982734205 0.4448334196166719 0.5483008888060878 7.724564507916176" Properties=species:S:1:pos:R:3 unique_starting_index=134 config_type=initial n_minim_iter=3 stress="0.001246590852155655 -8.568580932215171e-05 0.0014458447598671203 -8.568580932215171e-05 0.001210491088626572 0.001782145702078469 0.0014458447598671203 0.001782145702078469 -0.0035914066384965175" pbc="T T T"
Si      -0.09751178       1.75630289       3.44298843
Si       1.73868620       0.26660582       3.44298843
Si      -0.83671654       0.95520687       1.12933579
Si       1.10716466      -0.62185299       1.12933579
Si       2.18376830       4.57862342       7.26251410
Si       4.03016127       3.08065522       7.26251410
Si      -0.29134113       3.54234010       5.11313476
Si       3.52632195       0.44509157       5.11313476
Si       2.69992943       1.25056281       1.43125902
Si       0.66717540       2.89972468       1.43125902
10
Lattice="5.624367308884412 -1.369375205725174 0.3207000015407896 -2.4993085047828805 5.221317178377742 0.3207000015407533 0.4261997582690395 0.5253330706789744 7.746629750136354" Properties=species:S:1:pos:R:3 unique_starting_index=134 config_type=initial n_minim_iter=4 stress="-1.2198213492428437e-05 0.0010720054185605493 0.0005800002432773706 0.0010720054185605493 0.0004394418237310604 0.0007149072773594933 0.0005800002432773706 0.0007149072773594933 -0.0009632461874802723" pbc="T T T"
Si      -0.10913154       1.74650709       3.45337174
Si       1.73149593       0.25321640       3.45337174
Si      -0.83082223       0.94764963       1.12812028
Si       1.09855472      -0.61764301       1.12812028
Si       2.16974372       4.54041015       7.26473703
Si       3.99565949       3.05905499       7.26473703
Si      -0.29194858       3.51759974       5.12177496
Si       3.50223811       0.43939748       5.12177496
Si       2.68663285       1.25710896       1.42652777
Si       0.67632178       2.88806300       1.42652777
10
Lattice="5.624795650960293 -1.3885389687138263 0.3102544018733507 -2.518149019287754 5.217786130089925 0.3102544018733144 0.40223595465691436 0.4957953285933543 7.755073041992375" Properties=species:S:1:pos:R:3 unique_starting_index=134 config_type=initial n_minim_iter=5 stress="-9.335990113770028e-05 -0.00115971624301906 -0.0003506039946317749 -0.00115971624301906 -0.0005819528486151072 -0.0004321538656902383 -0.0003506039946317749 -0.0004321538656902383 0.0006819429663129206" pbc="T T T"
Si      -0.12970717       1.73303655       3.45700444
Si       1.72255588       0.23030598       3.45700444
Si      -0.82932499       0.94360582       1.12387416
Si       1.09428913      -0.61701147       1.12387416
Si       2.12976883       4.48523498       7.24888016
Si       3.94990915       3.00856540       7.24888016
Si      -0.31038219       3.48919048       5.12231519
Si       3.47823861       0.41550378       5.12231519
Si       2.66793909       1.25144700       1.41846788
Si       0.67463472       2.86860359       1.41846788
10
Lattice="5.607428471587134 -1.3773528302539173 0.2922702583794207 -2.5036232379864 5.203097689375913 0.29227025837938475 0.36614635277919816 0.45131134894258973 7.754206067783783" Properties=species:S:1:pos:R:3 unique_starting_index=134 config_type=initial n_minim_iter=6 stress="-0.002854355512545296 0.00257096130970934 -0.0011333022280914046 0.00257096130970934 -0.0017711995494198265 -0.0013969063284046815 -0.0011333022280914046 -0.0013969063284046815 0.0047637469148392245" pbc="T T T"
Si      -0.14771082       1.70955887       3.45855924
Si       1.70329345       0.20784955       3.45855924
Si      -0.80855065       0.93254250       1.10948681
Si       1.07918122      -0.59896372       1.10948681
Si       2.08848785       4.41353578       7.19896464
Si       3.88825887       2.95339170       7.19896464
Si      -0.30274702       3.44546431       5.12248868
Si       3.43387764       0.41396179       5.12248868
Si       2.63299053       1.28027503       1.40576402
Si       0.71004755       2.84034782       1.40576402
10
Lattice="5.651092427158133 -1.4305619352473038 0.27691556770090764 -2.5646900493029667 5.234856065057455 0.2769155677008712 0.34072178527164054 0.4199730718546948 7.6629693677165776" Properties=species:S:1:pos:R:3 unique_starting_index=134 config_type=initial n_minim_iter=7 stress="0.0018394504232951824 -0.003403318733429346 -0.0008824984989274164 -0.003403318733429346 0.0004056190518889407 -0.0010877660939883575 -0.0008824984989274164 -0.0010877660939883575 0.0018846176525525952" pbc="T T T"
Si      -0.16559790       1.68901426       3.41450197
Si       1.68687706       0.18611177       3.41450197
Si      -0.80917794       0.94217842       1.08657111
Si       1.08873951      -0.59759131       1.08657111
Si       2.00944129       4.37025526       7.07295804
Si       3.86220152       2.86712133       7.07295804
Si      -0.33233426       3.43570113       5.07239215
Si       3.43042289       0.38299747       5.07239215
Si       2.61338495       1.27611897       1.38496587
Si       0.71002200       2.82030660       1.38496587
10
Lattice="5.646332925077703 -1.4129884905756143 0.27844016372432034 -2.546512926866788 5.233821155581835 0.2784401637242841 0.3481746393998643 0.4291594467142283 7.63119615577555" Properties=species:S:1:pos:R:3 unique_starting_index=134 config_type=initial n_minim_iter=8 stress="0.0004399877402634566 -8.205754819354801e-05 0.00018950040734466467 -8.205754819354801e-05 0.0004054165772083448 0.00023357786801573763 0.00018950040734466467 0.00023357786801573763 0.00033307187880325" pbc="T T T"
Si      -0.15581289       1.69102669       3.40210118
Si       1.68682931       0.19610146       3.40210118
Si      -0.80194823       0.94292284       1.07937244
Si       1.08797770      -0.59036341       1.07937244
Si       2.02259604       4.38426981       7.04277536
Si       3.87320354       2.88288237       7.04277536
Si      -0.30999301       3.44605388       5.05868245
Si       3.43594815       0.40699293       5.05868245
Si       2.61592361       1.29387004       1.38459719
Si       0.72686858       2.82644974       1.38459719
10
Lattice="5.640552408328045 -1.3827759427168957 0.2663633549099305 -2.5157576661144154 5.234392433151953 0.26636335490989466 0.33768800661243253 0.41623364162771687 7.507246076372239" Properties=species:S:1:pos:R:3 unique_starting_index=134 config_type=initial n_minim_iter=9 stress="-0.0033563804259524018 0.005331921071371918 0.0021726924633704288 0.005331921071371918 -0.0011100214155844368 0.0026780569000298526 0.0021726924633704288 0.0026780569000298526 -0.004789721157543135" pbc="T T T"
Si      -0.14946126       1.67589654       3.34780005
Si       1.67071483       0.19919794       3.34780005
Si      -0.79217186       0.94549606       1.04874758
Si       1.08848047      -0.58026657       1.04874758
Si       2.00738109       4.35930546       6.89430821
Si       3.85191153       2.86284832       6.89430821
Si      -0.26238007       3.46029015       4.98731362
Si       3.44006433       0.45651788       4.98731362
Si       2.62498110       1.32728361       1.36670324
Si       0.75769759       2.84220020       1.36670324
10
Lattice="5.6479909787100135 -1.339456539210482 0.2012769587037658 -2.4749018459340917 5.250600610312632 0.20127695870373047 0.2434650229890073 0.3000945581227014 7.156810855705764" Properties=species:S:1:pos:R:3 unique_starting_index=134 config_type=initial n_minim_iter=10 stress="-0.012752871921843701 0.012868121066917804 0.0014143041029860636 0.012868121066917804 -0.007331482648026959 0.0017432687440113366 0.0014143041029860636 0.0017432687440113366 -0.012301595033672934" pbc="T T T"
Si      -0.17936423       1.59692047       3.19010148
Si       1.59959861       0.15365794       3.19010148
Si      -0.76982440       0.95229117       0.94893773
Si       1.09052322      -0.55699836       0.94893773
Si       1.85934937       4.16230852       6.41202905
Si       3.68965861       2.67738895       6.41202905
Si      -0.15893409       3.46073273       4.76570782
Si       3.41917427       0.55783359       4.76570782
Si       2.63303198       1.40836489       1.28964480
Si       0.83537813       2.86679131       1.28964480
10
Lattice="5.654402821964434 -1.3201150370870403 0.18165604946947644 -2.4572973642421014 5.26086158797886 0.18165604946944114 0.21817619154849233 0.2689235890717486 7.028771645046341" Properties=species:S:1:pos:R:3 unique_starting_index=134 config_type=initial n_minim_iter=11 stress="-0.014788349194995137 0.013080239224745277 -0.00035876171500588634 0.013080239224745277 -0.009277593719255652 -0.0004422090574416003 -0.00035876171500588634 -0.0004422090574416003 -0.016421382731679413" pbc="T T T"
Si      -0.18569481       1.57353472       3.13367978
Si       1.57801998       0.14264285       3.13367978
Si      -0.76512641       0.95911476       0.91376955
Si       1.09623188      -0.55099473       0.91376955
Si       1.81356207       4.10132087       6.24515532
Si       3.63941873       2.62001366       6.24515532
Si      -0.10895914       3.48010376       4.68526756
Si       3.42782807       0.61072824       4.68526756
Si       2.65051548       1.43640705       1.26609749
Si       0.85921425       2.88967964       1.26609749
10
Lattice="5.654212343704489 -1.3113763183590599 0.197301477864034 -2.4487070465828147 5.2624764964861175 0.19730147786399896 0.2471578631296972 0.3046463463698703 7.068785836018754" Properties=species:S:1:pos:R:3 unique_starting_index=134 config_type=initial n_minim_iter=12 stress="-0.00745089402119798 0.00924308510580377 0.001774709078306108 0.00924308510580377 -0.0035567464460394514 0.002187503281219127 0.001774709078306108 0.002187503281219127 -0.012698933982060293" pbc="T T T"
Si      -0.17351612       1.59332354       3.15586369
Si       1.59487347       0.15863904       3.15586369
Si      -0.77918836       0.96628917       0.92395895
Si       1.10615078      -0.56327585       0.92395895
Si       1.84612173       4.13395108       6.30818675
Si       3.66463674       2.65860010       6.30818675
Si      -0.08427090       3.52523920       4.71693137
Si       3.46690528       0.64418999       4.71693137
Si       2.68836927       1.42172145       1.29111110
Si       0.83704129       2.92369340       1.29111110
10
Lattice="5.650122711385054 -1.3274138090463996 0.2058027194345469 -2.463557143622066 5.255168910155495 0.20580271943451214 0.25321170263934084 0.31210829827691783 7.1699990953268875" Properties=species:S:1:pos:R:3 unique_starting_index=134 config_type=initial n_minim_iter=13 stress="-0.0020658006454314652 0.003960310525665994 0.0015056845007744729 0.003960310525665994 -0.00039730647342507973 0.0018559040612272158 0.0015056845007744729 0.0018559040612272158 -0.001182437839896137" pbc="T T T"
Si      -0.19120976       1.60579668       3.21289713
Si       1.61072591       0.14389644       3.21289713
Si      -0.78649359       0.96984423       0.93017269
Si       1.11113531      -0.56969140       0.93017269
Si       1.81800771       4.09204679       6.39044098
Si       3.62942743       2.62245218       6.39044098
Si      -0.06819498       3.54161661       4.79335827
Si       3.47961728       0.66329652       4.79335827
Si       2.69867598       1.40123723       1.32710307
Si       0.81487246       2.92955641       1.32710307
10
Lattice="5.651335867086869 -1.34331238546316 0.19923153480212993 -2.4793643636546956 5.253078868606515 0.1992315348020955 0.23507632008364832 0.28975465771031567 7.207679343179976" Properties=species:S:1:pos:R:3 unique_starting_index=134 config_type=initial n_minim_iter=14 stress="0.0006766657233063807 -0.0012294552981928573 -0.00029699836870002876 -0.0012294552981928573 0.0001586914416215968 -0.0003660796656699364 -0.00029699836870002876 -0.0003660796656699364 0.0019303805043491568" pbc="T T T"
Si      -0.20975941       1.60657766       3.23193695
Si       1.61531371       0.12590612       3.23193695
Si      -0.79906676       0.96786596       0.93462028
Si       1.11179121      -0.58240234       0.93462028
Si       1.77559452       4.05813606       6.39996409
Si       3.60498749       2.57395986       6.39996409
Si      -0.08521683       3.53436637       4.81182769
Si       3.47603143       0.64514574       4.81182769
Si       2.70385679       1.37026261       1.33192489
Si       0.78349511       2.92824122       1.33192489
10
Lattice="5.647468651978603 -1.3355157498071144 0.19498466209191975 -2.470938018731191 5.250901808323264 0.1949846620918857 0.2271097841208614 0.2799351195270888 7.209331028822078" Properties=species:S:1:pos:R:3 unique_starting_index=134 config_type=initial n_minim_iter=15 stress="0.001122576365029579 -0.0033143780603123547 -0.0012895360562258542 -0.0033143780603123547 -0.00027378395611764224 -0.0015894798695321524 -0.0012895360562258542 -0.0015894798695321524 0.0019387788379410008" pbc="T T T"
Si      -0.21690040       1.62796813       3.24050207
Si       1.63771679       0.12332767       3.24050207
Si      -0.80722588       0.95978042       0.93895843
Si       1.10556114      -0.59205290       0.93895843
Si       1.76813420       4.05775119       6.38346192
Si       3.60614867       2.56658041       6.38346192
Si      -0.08635693       3.53573109       4.80536602
Si       3.47760185       0.64431143       4.80536602
Si       2.71412080       1.35013439       1.32830338
Si       0.76168345       2.93413580       1.32830338
10
Lattice="5.648984762687277 -1.2879736709931455 0.1999104227860636 -2.4247294193326745 5.262185123051747 0.1999104227860304 0.25207882359807865 0.31071191356785427 7.103042408257947" Properties=species:S:1:pos:R:3 unique_starting_index=134 config_type=initial n_minim_iter=16 stress="0.00020008217598232436 -0.00010153443611339469 -0.0005656346901961017 -0.00010153443611339469 0.00015730532456670397 -0.0006972003219565612 -0.0005656346901961017 -0.0006972003219565612 -0.003180726361834813" pbc="T T T"
Si      -0.17997774       1.66578291       3.21107139
Si       1.66710870       0.16725210       3.21107139
Si      -0.79662469       0.95582403       0.92474262
Si       1.09950450      -0.58249489       0.92474262
Si       1.81029070       4.11203508       6.27861921
Si       3.65057717       2.61902104       6.27861921
Si      -0.01694489       3.58064076       4.75190041
Si       3.50723931       0.72149000       4.75190041
Si       2.73456362       1.38295450       1.31591890
Si       0.78958490       2.96090477       1.31591890
10
Lattice="5.641065254352581 -1.2731734227174354 0.21373442654594949 -2.408614572533408 5.257486434519599 0.21373442654591646 0.27879616031748095 0.3436436557071986 7.126134043341205" Properties=species:S:1:pos:R:3 unique_starting_index=134 config_type=initial n_minim_iter=17 stress="-0.0006308890581392914 0.0025172936219954372 0.0017077090651073574 0.0025172936219954372 0.00042965650017148165 0.0021049191830678016 0.0017077090651073574 0.0021049191830678016 -0.001935190435576188" pbc="T T T"
Si      -0.15043162       1.69733942       3.23301678
Si       1.69189724       0.20266841       3.23301678
Si      -0.79208036       0.94682425       0.93900767
Si       1.08976128      -0.57990326       0.93900767
Si       1.85686278       4.17139801       6.32102529
Si       3.69906546       2.67682936       6.32102529
Si      -0.00837199       3.58431565       4.77593452
Si       3.50906816       0.73063629       4.77593452
Si       2.72726945       1.38549197       1.32059494
Si       0.79357142       2.95429029       1.32059494
10
Lattice="5.638897875641755 -1.2828745705308697 0.2075188580697897 -2.417660630329032 5.2533659202637715 0.20751885806975717 0.26387570311229924 0.3252527264599242 7.138799174681296" Properties=species:S:1:pos:R:3 unique_starting_index=134 config_type=initial n_minim_iter=18 stress="-0.00040238456069126256 0.000983817478658711 -0.00020142084874516273 0.000983817478658711 1.2101555693220988e-05 -0.0002482709830705824 -0.00020142084874516273 -0.0002482709830705824 0.0006064782574490275" pbc="T T T"
Si      -0.15948873       1.68604265       3.24162805
Si       1.68270999       0.19147721       3.24162805
Si      -0.79752358       0.94503220       0.93629780
Si       1.08912972      -0.58559898       0.93629780
Si       1.82588456       4.12441935       6.31250119
Si       3.65948116       2.63683278       6.31250119
Si      -0.00624535       3.57392321       4.78359013
Si       3.49846054       0.73057509       4.78359013
Si       2.72492907       1.37901004       1.31814030
Si       0.78771110       2.95066405       1.31814030
10
Lattice="5.638486937502904 -1.2841169750373362 0.21495070881757067 -2.418791648262111 5.252707712434353 0.21495070881753836 0.27979208171765474 0.34487122666930675 7.122436293594425" Properties=species:S:1:pos:R:3 unique_starting_index=134 config_type=initial n_minim_iter=19 stress="-0.0002635351730237897 2.6568162371698752e-05 -0.00016062756150018895 2.6568162371698752e-05 -0.0002523419032567285 -0.00019798924912830905 -0.00016062756150018895 -0.00019798924912830905 2.30312398563605e-05" pbc="T T T"
Si      -0.12196348       1.72282686       3.25969141
Si       1.71096925       0.23577887       3.25969141
Si      -0.81396512       0.92642749       0.95088352
Si       1.07431360      -0.60552239       0.95088352
Si       1.84715951       4.14570843       6.29537111
Si       3.67592768       2.66203912       6.29537111
Si       0.01043440       3.57183844       4.78219491
Si       3.49298237       0.74646690       4.78219491
Si       2.72091212       1.36231152       1.29824417
Si       0.77219919       2.94329134       1.29824417
10
Lattice="5.632837084997849 -1.2850502550788687 0.21576109043585376 -2.4185402922599852 5.246986815203587 0.21576109043582184 0.27950607271136685 0.34451869247237243 7.136681561561429" Properties=species:S:1:pos:R:3 unique_starting_index=134 config_type=initial n_minim_iter=20 stress="-0.0004559086614975963 -0.00010818662187671859 0.00016660011431731122 -0.00010818662187671859 -0.0005014881045543694 0.00020535100720242065 0.00016660011431731122 0.00020535100720242065 0.00032828762499252764" pbc="T T T"
Si      -0.12100911       1.71053731       3.26018056
Si       1.69874690       0.23417953       3.26018056
Si      -0.82640874       0.92678286       0.95867203
Si       1.07722633      -0.61762553       0.95867203
Si       1.84635526       4.14143935       6.31545222
Si       3.67191606       2.66037216       6.31545222
Si       0.01051196       3.57964326       4.78889965
Si       3.50060359       0.74815159       4.78889965
Si       2.72930963       1.35001201       1.29790648
Si       0.75843284       2.94897323       1.29790648
10
Lattice="5.636222000604436 -1.2687884023221434 0.21576870307808793 -2.403325389349157 5.253651065961118 0.21576870307805676 0.28448782101208686 0.3506591866453304 7.106798066144258" Properties=species:S:1:pos:R:3 unique_starting_index=134 config_type=initial n_minim_iter=21 stress="0.0007167478703486066 -0.0003265217830202121 -0.00014782129996462298 -0.0003265217830202121 0.0005791829777801124 -0.00018220427373636167 -0.00014782129996462298 -0.00018220427373636167 -0.0012803400685627397" pbc="T T T"
Si      -0.10578966       1.73560741       3.25586816
Si       1.72014146       0.25423979       3.25586816
Si      -0.84401817       0.91176492       0.97116034
Si       1.06616069      -0.63795242       0.97116034
Si       1.86931349       4.16858628       6.28164551
Si       3.69374767       2.68843312       6.28164551
Si       0.03741111       3.60374908       4.76917448
Si       3.51864707       0.77944198       4.76917448
Si       2.74330802       1.33884149       1.27738143
Si       0.74461675       2.96036845       1.27738143
