12
Lattice="6.583862247389826 0.24655197136283338 1.849861459720609 1.933367735819056 8.207220162674133 -0.31981548036868235 5.870793073380107 2.7421175732957357 6.234237703110071" Properties=species:S:1:pos:R:3 unique_starting_index=150 config_type=initial n_minim_iter=11 energy=-1953.0814310970356 free_energy=-1953.0814310970356 pbc="T T T"
Si       4.95734856       8.34033698       1.75265433
Si       9.43067449       2.85555273       6.01162935
Si       6.33054158       1.24295156       2.47275192
Si       8.05748147       9.95293815       5.29153176
Si       4.19705403       4.37996444       3.38529137
Si      10.19096903       6.81592526       4.37899232
Si       3.32532027       5.46707795       0.17496154
Si      11.06270279       5.72881176       7.58932214
Si      11.49290823       7.71877540       6.35370701
Si       2.89511483       3.47711431       1.41057667
Si       7.98606000       2.08317998       4.07609310
Si       6.40196306       9.11270973       3.68819058
