16
Lattice="8.786915853992006 0.2854116210866899 0.5483277380403178 -3.708239925881856 7.971217397714566 -0.5483276186370492 -2.7517490114279672 -3.997659977998519 7.351095524158689" Properties=species:S:1:pos:R:3 unique_starting_index=82 config_type=initial n_minim_iter=1 energy=-2599.12777711489 free_energy=-2599.12777711489 pbc="T T T"
Si       0.08627536       3.49537973       1.98681909
Si       1.65062320       6.81678599       1.53227929
Si      -3.77144036       4.46164412       5.38820303
Si       2.75658991       1.85286162       5.48199088
Si       1.73147397       5.03146557       3.14102569
Si      -0.40876347       5.53546839       0.81423833
Si      -4.40042817       2.30048409       6.54240957
Si       2.97138966       4.26878989       4.76394997
Si       5.17751715       5.24734188       0.46518792
Si      -1.67662960      -1.71047933       5.64965456
Si       5.74800930      -0.58712726       4.41489949
Si      -2.24712175       4.12398982       1.69994299
Si      -3.73677698       1.28302196       4.48938983
Si       5.08300855       3.57917557       3.89443867
Si       2.93889130       4.89802821       1.08800596
Si      -1.59265974      -0.03583068       7.29582254
16
Lattice="8.728472985780991 0.27477656725545574 0.5339848641106668 -3.6913736783349513 7.9142594927631915 -0.5339847456848942 -2.7390270145339644 -3.9589018856746074 7.30559439975802" Properties=species:S:1:pos:R:3 unique_starting_index=82 config_type=initial n_minim_iter=2 stress="-0.005106273276694274 0.0006338833327662654 -0.0004611584914638834 0.0006338833327662654 -0.004465644440391352 0.0002836599183518297 -0.0004611584914638834 0.0002836599183518297 -0.0056141581401485665" pbc="T T T"
Si       0.07507689       3.46897594       1.97855951
Si       1.63129356       6.76880085       1.52890411
Si      -3.75891926       4.44065092       5.36436432
Si       2.72626269       1.83822398       5.44869370
Si       1.70707403       4.98815081       3.12150717
Si      -0.40760913       5.49991472       0.81445315
Si      -4.37876768       2.29890046       6.50731193
Si       2.93920557       4.23026319       4.73424279
Si       5.14080735       5.20430307       0.45580845
Si      -1.66906337      -1.69609765       5.61383718
Si       5.70542879      -0.58848361       4.37559803
Si      -2.23368481       4.09668903       1.69404761
Si      -3.72305757       1.27884807       4.46692078
Si       5.04296804       3.55295621       3.86873865
Si       2.91322172       4.86296925       1.08111603
Si      -1.59331126      -0.03116497       7.25454339
16
Lattice="8.723867522481823 0.13776506822832138 0.48863408390886937 -3.8115820176919697 7.8483556493771625 -0.4886339684175576 -2.7212818658782085 -3.829972644627707 7.368143699714367" Properties=species:S:1:pos:R:3 unique_starting_index=82 config_type=initial n_minim_iter=3 stress="-0.004435142078826896 -0.0001511102676342191 0.0008214975109710656 -0.0001511102676342191 -0.0045878603714315565 -0.0005053054569846409 0.0008214975109710656 -0.0005053054569846409 -0.00413202422928882" pbc="T T T"
Si      -0.03803213       3.40420943       2.02530928
Si       1.52108693       6.69124077       1.58588286
Si      -3.86576553       4.50086821       5.46506413
Si       2.62753847       1.76460935       5.51427171
Si       1.56984212       4.83418755       3.13872835
Si      -0.44396991       5.48096667       0.84859915
Si      -4.41688373       2.42087642       6.57848315
Si       2.82147408       4.06430516       4.77698805
Si       5.08996076       5.06288004       0.40499368
Si      -1.65319558      -1.67300340       5.65128618
Si       5.69047539      -0.68627549       4.33338251
Si      -2.25371021       4.07615213       1.72289735
Si      -3.80834940       1.31241368       4.52786182
Si       4.98686877       3.46651633       3.90649055
Si       2.83362110       4.79098513       1.08810703
Si      -1.65510172      -0.01205511       7.34624534
16
Lattice="8.751105561615136 0.1057649824140692 0.3912395909356878 -3.8524273137192777 7.858233813311071 -0.3912394757642928 -2.800634667075718 -3.765916619865881 7.397325237769642" Properties=species:S:1:pos:R:3 unique_starting_index=82 config_type=initial n_minim_iter=4 stress="-0.0019246549925588717 0.0013585747335820102 -0.0012351318517625364 0.0013585747335820102 -0.0005516229209655265 0.0007597331538743819 -0.0012351318517625364 0.0007597331538743819 -0.0030763106513461928" pbc="T T T"
Si      -0.09867755       3.40541951       2.06330298
Si       1.48659103       6.71806061       1.63374958
Si      -3.96109984       4.58035582       5.56634585
Si       2.54837865       1.77720768       5.52803195
Si       1.50313156       4.81447675       3.15958976
Si      -0.45242334       5.51641927       0.89256079
Si      -4.49628118       2.51521278       6.66263258
Si       2.74635473       4.04976662       4.78684321
Si       5.10061886       5.05132381       0.36617840
Si      -1.70966102      -1.64851683       5.66962827
Si       5.66593182      -0.69667004       4.26046076
Si      -2.27497397       4.09947702       1.77534591
Si      -3.90342393       1.34907645       4.59653225
Si       4.95645282       3.49179722       3.90125820
Si       2.81131484       4.81127772       1.09348945
Si      -1.75828594       0.02959595       7.40430100
16
Lattice="8.780761044530953 -0.03603372925081442 0.40267930801759194 -3.9923603176448235 7.820749461244579 -0.40267919543890024 -2.7449938121029547 -3.6765839291806204 7.497529803815987" Properties=species:S:1:pos:R:3 unique_starting_index=82 config_type=initial n_minim_iter=5 stress="0.0006315333683416023 -0.0010483353470077854 0.0002686176189639534 -0.0010483353470077854 -0.00042795791158442705 -0.00016522749428316447 0.0002686176189639534 -0.00016522749428316447 0.0013450897551734976" pbc="T T T"
Si      -0.17163412       3.34640374       2.09200530
Si       1.39549179       6.63087249       1.66167911
Si      -4.03861599       4.60837024       5.63943059
Si       2.51747985       1.69232206       5.61178362
Si       1.42102652       4.69279498       3.19534776
Si      -0.51671031       5.48103211       0.89483358
Si      -4.52199274       2.57965530       6.74277300
Si       2.68131514       3.91758785       4.84493814
Si       5.05429163       4.91438926       0.36129974
Si      -1.68336322      -1.62281966       5.73826793
Si       5.69962524      -0.79907949       4.31140424
Si      -2.32869683       4.09064908       1.78816343
Si      -3.96550305       1.38278492       4.65854486
Si       4.92908884       3.38954791       3.97610349
Si       2.74023846       4.73591603       1.11111963
Si      -1.77665267       0.03641680       7.52352872
16
Lattice="8.827955784248484 -0.10877181887989056 0.4218162481223839 -4.078565722718393 7.830066179598796 -0.42181613646086014 -2.7165088504666537 -3.650396639940518 7.577449941824512" Properties=species:S:1:pos:R:3 unique_starting_index=82 config_type=initial n_minim_iter=6 stress="0.007085659306591408 0.0019095705271230698 0.002008740397447965 0.0019095705271230698 0.009015550741171953 -0.0012355818615005455 0.002008740397447965 -0.0012355818615005455 0.006424987257285417" pbc="T T T"
Si      -0.22094246       3.29323170       2.09626898
Si       1.38882966       6.63105519       1.67527516
Si      -4.06176295       4.66240127       5.67408587
Si       2.51314130       1.61148897       5.67490821
Si       1.40020853       4.60650599       3.22653944
Si      -0.53537593       5.50419063       0.86413993
Si      -4.50273278       2.62319417       6.80435629
Si       2.65105654       3.83710581       4.86377303
Si       5.06449645       4.87310687       0.37452255
Si      -1.68666651      -1.62949090       5.78661331
Si       5.73990222      -0.87626554       4.37415559
Si      -2.36207229       4.11988152       1.78698027
Si      -4.05024017       1.39120660       4.71417551
Si       4.94161380       3.38183567       4.06535263
Si       2.70385966       4.75828463       1.13635869
Si      -1.81248603       0.01475763       7.64316945
16
Lattice="8.822349931033553 -0.2726470448301676 0.3288873563370898 -4.222299279860969 7.7511536934244 -0.32888724818664233 -2.728007754164092 -3.476000229174684 7.647990436043904" Properties=species:S:1:pos:R:3 unique_starting_index=82 config_type=initial n_minim_iter=7 stress="0.005331145338790498 -0.0004235149517450443 -0.00016048335510785084 -0.0004235149517450443 0.0049031235147521165 9.871375378225458e-05 -0.00016048335510785084 9.871375378225458e-05 0.005550593001248722" pbc="T T T"
Si      -0.31970332       3.21689825       2.12462654
Si       1.27258109       6.50499473       1.71607218
Si      -4.19046180       4.71132242       5.78417813
Si       2.41533182       1.53457033       5.70451103
Si       1.28762697       4.47864085       3.26872989
Si      -0.63514249       5.42802490       0.88830155
Si      -4.59167184       2.70769181       6.92828143
Si       2.51614856       3.72297371       4.87674045
Si       4.97744844       4.69453847       0.36878136
Si      -1.73727035      -1.53357586       5.83847820
Si       5.70212682      -0.95556471       4.35722020
Si      -2.46194873       4.11652732       1.85003936
Si      -4.16400305       1.46497295       4.81774008
Si       4.83411717       3.27684326       4.09595580
Si       2.58966022       4.65741514       1.15818856
Si      -1.91954610       0.08440107       7.75550732
16
Lattice="8.757302384041557 -0.3438452374749543 0.32722907155441544 -4.256508050604759 7.660986481991984 -0.3272289657375533 -2.678113594440627 -3.3954811447539606 7.629814468847667" Properties=species:S:1:pos:R:3 unique_starting_index=82 config_type=initial n_minim_iter=8 stress="-0.0025329014986728883 0.00021551687573978547 0.0003354868403860059 0.00021551687573978547 -0.0023150911725690914 -0.0002063589013348969 0.0003354868403860059 -0.0002063589013348969 -0.0025796365795148876" pbc="T T T"
Si      -0.35902106       3.14129064       2.10218358
Si       1.23742654       6.40399221       1.71241603
Si      -4.18249863       4.69500720       5.75347633
Si       2.38279052       1.45479451       5.69093775
Si       1.25640071       4.38020859       3.25384036
Si      -0.66698917       5.34283525       0.86508775
Si      -4.55968790       2.69444889       6.90513306
Si       2.47098585       3.63311381       4.84360952
Si       4.90267520       4.58792248       0.38549808
Si      -1.73340656      -1.49455239       5.82627613
Si       5.65672729      -0.99744836       4.36401980
Si      -2.48745864       4.09081844       1.84775442
Si      -4.16939501       1.47124139       4.81718990
Si       4.76749149       3.20366394       4.10218764
Si       2.52416284       4.58354181       1.16589722
Si      -1.92606635       0.09136353       7.75348031
16
Lattice="8.741060340211963 -0.5025856772133239 0.21757658408912214 -4.3908616964662475 7.574896820497167 -0.21757648181287154 -2.702061104568234 -3.2120199956243582 7.686862893209374" Properties=species:S:1:pos:R:3 unique_starting_index=82 config_type=initial n_minim_iter=9 stress="-0.005465657900647139 -0.0010313699210823934 -0.0013033294307347428 -0.0010313699210823934 -0.006508003266697113 0.0008016816009356905 -0.0013033294307347428 0.0008016816009356905 -0.005164699281804961" pbc="T T T"
Si      -0.48497355       3.05505485       2.11523450
Si       1.14310750       6.28825571       1.77273808
Si      -4.31678560       4.77258605       5.84987770
Si       2.27285844       1.35870452       5.72495778
Si       1.16186257       4.27835764       3.26036901
Si      -0.75421670       5.21902884       0.89138301
Si      -4.66586988       2.75103239       6.99501216
Si       2.37145465       3.53433410       4.84360275
Si       4.79565770       4.42344696       0.39581888
Si      -1.81437385      -1.38317786       5.88715860
Si       5.58456861      -1.06022300       4.34803856
Si      -2.60328477       4.10049210       1.93493891
Si      -4.27144713       1.54668638       4.92800520
Si       4.64009456       3.10062275       4.10624002
Si       2.41465305       4.46949818       1.19336207
Si      -2.04600562       0.17781096       7.84088315
16
Lattice="8.746680707910222 -0.7155963618358337 0.10543953180829206 -4.583512734937215 7.483843436932061 -0.10543943392926303 -2.7142362154922606 -2.994977469728102 7.790420449269797" Properties=species:S:1:pos:R:3 unique_starting_index=82 config_type=initial n_minim_iter=10 stress="-0.0042683924265240845 -0.001895228838382495 -0.0009888480167011334 -0.001895228838382495 -0.006183789521120561 0.0006082431620284123 -0.0009888480167011334 0.0006082431620284123 -0.003355615738933079" pbc="T T T"
Si      -0.66898834       2.94385913       2.13912547
Si       1.02689484       6.16501502       1.86805032
Si      -4.49646192       4.89793562       5.98161597
Si       2.14013220       1.21596106       5.81598027
Si       1.04448450       4.12663361       3.26305483
Si      -0.84548360       5.07998382       0.91145838
Si      -4.77932015       2.83518600       7.10554528
Si       2.26408484       3.37645396       4.85938837
Si       4.67512462       4.22396822       0.40136730
Si      -1.89600236      -1.26890253       5.98828037
Si       5.51793779      -1.16472637       4.34929724
Si      -2.73881553       4.11979205       2.04035043
Si      -4.41449714       1.63512588       5.07824024
Si       4.50278616       2.97507892       4.14502126
Si       2.28010001       4.34225952       1.23574980
Si      -2.19181099       0.26794528       7.98751170
16
Lattice="8.803750940515433 -1.2760521428625524 -0.27140949262544667 -5.109469657194625 7.282009301627802 0.2714095794806767 -2.8304667804281247 -2.39813199936589 8.089834579589876" Properties=species:S:1:pos:R:3 unique_starting_index=82 config_type=initial n_minim_iter=11 stress="0.01234929429862056 0.0019867334017125778 -0.0007861900140873258 0.0019867334017125778 0.014357169651921348 0.000483587774864019 -0.0007861900140873258 0.000483587774864019 0.010926112411691372" pbc="T T T"
Si      -1.24153785       2.69905050       2.26268433
Si       0.68663516       5.92059172       2.21196929
Si      -5.09172732       5.33571878       6.44330642
Si       1.70635785       0.88579143       6.12118179
Si       0.71213330       3.70660449       3.25924334
Si      -1.03828624       4.77233310       0.97452264
Si      -5.10986632       3.13761344       7.43986538
Si       1.95324660       2.94319216       4.88373518
Si       4.39221357       3.73956450       0.34174176
Si      -2.13562125      -0.98844090       6.28141171
Si       5.32421538      -1.43784752       4.25095425
Si      -3.06762306       4.18897111       2.37219922
Si      -4.87951396       1.89318779       5.53812388
Si       4.13391396       2.70459278       4.24652380
Si       1.92669847       4.06225733       1.35750187
Si      -2.67229847       0.53552324       8.42714581
16
Lattice="8.808544096711103 -1.3391110554951253 -0.3056438719033376 -5.1679127256341 7.257847169137949 0.3056439574972568 -2.83605465836022 -2.3345842511240993 8.123028748458438" Properties=species:S:1:pos:R:3 unique_starting_index=82 config_type=initial n_minim_iter=12 stress="0.012376048539906143 5.971965236033567e-05 -0.0009604259479266199 5.971965236033567e-05 0.012436403672454835 0.0005907607301611988 -0.0009604259479266199 0.0005907607301611988 0.01209360227675962" pbc="T T T"
Si      -1.29763041       2.67414425       2.27615789
Si       0.64488422       5.88546051       2.24503430
Si      -5.15363667       5.37309770       6.49049425
Si       1.66483583       0.85192282       6.15372670
Si       0.67575864       3.65550903       3.26201794
Si      -1.06188766       4.74009877       0.97840990
Si      -5.13950834       3.16920532       7.47635425
Si       1.91732466       2.89181823       4.88710234
Si       4.36136322       3.67994279       0.33460637
Si      -2.15328445      -0.95908899       6.31044799
Si       5.30946788      -1.47039969       4.24329876
Si      -3.10138911       4.19125349       2.40175560
Si      -4.92780119       1.92188914       5.58494898
Si       4.09432224       2.66983539       4.26305378
Si       1.88449451       4.02910674       1.37061269
Si      -2.71797347       0.56261779       8.47739007
16
Lattice="8.752163310864308 -1.384641890873714 -0.2610049259836573 -5.183121661954581 7.186991413629479 0.2610050098945751 -2.7602318096483884 -2.301012284126196 8.10383749730307" Properties=species:S:1:pos:R:3 unique_starting_index=82 config_type=initial n_minim_iter=13 stress="0.007604583467716243 0.0013706747084141384 0.002342788892017622 0.0013706747084141384 0.00898984439293771 -0.0014410560566735801 0.002342788892017622 -0.0014410560566735801 0.007360849746354827" pbc="T T T"
Si      -1.34103618       2.62346192       2.28081436
Si       0.60292265       5.82823092       2.25488652
Si      -5.13346598       5.35786119       6.46323562
Si       1.63512064       0.79281936       6.17630276
Si       0.62308239       3.54329485       3.26774219
Si      -1.07250374       4.73082261       0.96394797
Si      -5.06860033       3.18999428       7.45016340
Si       1.85894718       2.78311089       4.88536425
Si       4.34151035       3.59667463       0.28718730
Si      -2.06382547      -0.99884657       6.26983401
Si       5.31296382      -1.53749197       4.20860354
Si      -3.03527895       4.13532004       2.34841777
Si      -4.90935935       1.89519035       5.54069564
Si       4.08500530       2.61071061       4.28296452
Si       1.85053932       3.98513701       1.35827445
Si      -2.67489337       0.52076394       8.46538571
16
Lattice="8.72769246054273 -1.4748932842548754 -0.305369336328323 -5.252636230285866 7.124446537672932 0.30536941802985296 -2.7532443139341547 -2.2000068294062998 8.125317963974053" Properties=species:S:1:pos:R:3 unique_starting_index=82 config_type=initial n_minim_iter=14 stress="0.0033625153990428265 0.001883928574301958 -0.002117055082093734 0.001883928574301958 0.0052664918763579505 0.0013022066546122418 -0.002117055082093734 0.0013022066546122418 0.0016620844686474194" pbc="T T T"
Si      -1.38804359       2.56309297       2.29265281
Si       0.53798058       5.74685333       2.26196534
Si      -5.17904251       5.36987530       6.50799651
Si       1.57573519       0.74006418       6.17193961
Si       0.54045319       3.43261296       3.31495404
Si      -1.13553502       4.72049370       0.97115316
Si      -5.08533732       3.25649311       7.53029769
Si       1.73701117       2.69660673       4.88112747
Si       4.31125754       3.48271910       0.25895645
Si      -2.06462988      -0.97109113       6.26063631
Si       5.29829999      -1.60651505       4.16893071
Si      -3.05167233       4.11814302       2.35066204
Si      -4.98586562       1.92849165       5.58518261
Si       4.02138273       2.55829948       4.31590816
Si       1.77058310       3.94277276       1.36983898
Si      -2.73506598       0.54401836       8.53125179
16
Lattice="8.660494959676907 -1.5698196107937776 -0.2459452291306612 -5.307053175972403 7.021658857113118 0.2459453079736123 -2.641427315482193 -2.1325260832334934 8.124296268238117" Properties=species:S:1:pos:R:3 unique_starting_index=82 config_type=initial n_minim_iter=15 stress="-0.008541465305320751 0.001232147621387663 0.003606993576516807 0.001232147621387663 -0.007296205572685071 -0.0022186719529126435 0.003606993576516807 -0.0022186719529126435 -0.00837656023265672" pbc="T T T"
Si      -1.42591915       2.46554427       2.26090925
Si       0.49891268       5.61921078       2.24666759
Si      -5.14116779       5.33116481       6.44603004
Si       1.57273400       0.62106415       6.18584306
Si       0.48404121       3.29722147       3.31273603
Si      -1.17725539       4.64372728       0.94864306
Si      -5.02204726       3.25139417       7.49785679
Si       1.68740576       2.55702850       4.88781858
Si       4.24931525       3.34855559       0.26592499
Si      -2.00183590      -0.97371121       6.24143186
Si       5.29080234      -1.70215824       4.20510046
Si      -3.04332298       4.07700263       2.30225638
Si      -4.96558258       1.91601835       5.56455232
Si       3.97384957       2.45127470       4.35389550
Si       1.70135633       3.84909178       1.37943159
Si      -2.69308935       0.51820127       8.53901623
16
Lattice="8.652308575406897 -1.705007930912874 -0.3471749733017034 -5.424019266748199 6.953381240080289 0.3471750492053977 -2.6704590459509703 -1.9744447944706764 8.176811262840133" Properties=species:S:1:pos:R:3 unique_starting_index=82 config_type=initial n_minim_iter=16 stress="-0.012697737688891845 -0.0005756129809000325 -0.0002485987900736561 -0.0005756129809000325 -0.013279476107015499 0.00015291380355390377 -0.0002485987900736561 0.00015291380355390377 -0.012407277288945927" pbc="T T T"
Si      -1.54596980       2.39294293       2.28175787
Si       0.41553431       5.53649430       2.30824900
Si      -5.26608871       5.41422507       6.54375104
Si       1.46519417       0.54076737       6.22306710
Si       0.36986123       3.19502521       3.32877736
Si      -1.24307574       4.57619467       0.99035991
Si      -5.11790640       3.34256230       7.59077048
Si       1.57423285       2.45421279       4.90517805
Si       4.18910177       3.21805777       0.24470146
Si      -2.06170865      -0.90957180       6.27926310
Si       5.23635586      -1.78158034       4.15951956
Si      -3.10896273       4.09006631       2.36444500
Si      -5.07068222       1.97580012       5.66958591
Si       3.86774801       2.38117960       4.36141933
Si       1.61102175       3.76929836       1.40759281
Si      -2.81395597       0.58768136       8.62341242
16
Lattice="8.702348245865865 -1.735112136984672 -0.3641098399142972 -5.473456185804251 6.984465365885835 0.36410991583574376 -2.6904875199541194 -1.9628005610290291 8.23302775158413" Properties=species:S:1:pos:R:3 unique_starting_index=82 config_type=initial n_minim_iter=17 stress="-0.0014198748653611666 -0.0025598781530735025 -0.0012493393341543883 -0.0025598781530735025 -0.004006994198626397 0.0007684720903736058 -0.0012493393341543883 0.0007684720903736058 -0.00016491382494572895" pbc="T T T"
Si      -1.57633886       2.39149232       2.29432483
Si       0.41216308       5.56004934       2.33184739
Si      -5.31292204       5.46383842       6.59289367
Si       1.45825874       0.52490267       6.26630630
Si       0.35130340       3.20826952       3.34593993
Si      -1.25992035       4.58607718       1.01111304
Si      -5.17252828       3.37500637       7.64450873
Si       1.57342380       2.45653977       4.94557199
Si       4.20245733       3.22756329       0.25174765
Si      -2.09441867      -0.90649699       6.32835837
Si       5.24950382      -1.80603757       4.18620656
Si      -3.14146517       4.12710387       2.39389946
Si      -5.10155921       1.99065727       5.71831001
Si       3.87523122       2.38138736       4.37309032
Si       1.61886973       3.76928175       1.41974124
Si      -2.84519773       0.60276288       8.67165909
16
Lattice="8.697562108061073 -1.6695969058519387 -0.32060396596229185 -5.41282397029654 7.009741583629554 0.3206040432095686 -2.678028869237189 -2.033035176761146 8.199564421369315" Properties=species:S:1:pos:R:3 unique_starting_index=82 config_type=initial n_minim_iter=18 stress="0.0035935153940963474 -0.0002596514323662624 0.00040110236549612753 -0.0002596514323662624 0.0033311008778783876 -0.00024671921073233036 0.00040110236549612753 -0.00024671921073233036 0.0038558445719160234" pbc="T T T"
Si      -1.54721650       2.39119145       2.27379367
Si       0.47983738       5.62595284       2.30925506
Si      -5.23505060       5.46089837       6.53387791
Si       1.48964261       0.52321074       6.24873524
Si       0.38829121       3.24716131       3.33094546
Si      -1.21785976       4.62370502       1.00167402
Si      -5.12608966       3.34737001       7.59102966
Si       1.61849225       2.49046114       4.94115425
Si       4.24170011       3.31832250       0.26268971
Si      -2.08795652      -0.96279817       6.30775197
Si       5.24588062      -1.79356395       4.20216989
Si      -3.09213703       4.14908829       2.36827179
Si      -5.04271886       1.94139524       5.67345627
Si       3.92126246       2.42871384       4.34597356
Si       1.68075218       3.80685812       1.41337210
Si      -2.80220858       0.56325097       8.60605773
16
Lattice="8.668195734829307 -1.6740785578121762 -0.3162654047789843 -5.403579442826817 6.981510257320729 0.3162654815863876 -2.6622031713352943 -2.0202246167431763 8.177502485095145" Properties=species:S:1:pos:R:3 unique_starting_index=82 config_type=initial n_minim_iter=19 stress="0.00011024617196931489 1.005795810155055e-05 0.0005201428446792431 1.005795810155055e-05 0.00012041119045106401 -0.0003199413355052778 0.0005201428446792431 -0.0003199413355052778 0.00023713130357743868" pbc="T T T"
Si      -1.56343663       2.35360174       2.26098328
Si       0.49233225       5.62074398       2.30479882
Si      -5.20634227       5.46826156       6.50786727
Si       1.47303473       0.48585954       6.23541731
Si       0.37139928       3.20666225       3.32098776
Si      -1.20620985       4.62233848       0.99596234
Si      -5.09508768       3.35664495       7.56787171
Si       1.59807394       2.45213117       4.92658088
Si       4.23767451       3.32116012       0.25847887
Si      -2.08930194      -0.98487705       6.29103277
Si       5.21464023      -1.81979934       4.18909736
Si      -3.06626765       4.15608241       2.36041427
Si      -5.03205633       1.92667099       5.66659749
Si       3.90289744       2.42563093       4.33435750
Si       1.67610672       3.79533626       1.41971357
Si      -2.80526561       0.55696566       8.58124142
16
Lattice="8.617162231594625 -1.559919549631237 -0.30731682221478196 -5.278673741731195 6.987448562298131 0.3073169008354744 -2.682033546953076 -2.0907950507062245 8.07580024920874" Properties=species:S:1:pos:R:3 unique_starting_index=82 config_type=initial n_minim_iter=20 stress="-0.003784668270878398 0.003463836086071026 -0.0017607115691859402 0.003463836086071026 -0.00028397153553339855 0.0010830188115888897 -0.0017607115691859402 0.0010830188115888897 -0.006365738921903979" pbc="T T T"
Si      -1.49573658       2.36181885       2.24344445
Si       0.56372811       5.69250490       2.25365306
Si      -5.09366913       5.43186455       6.43500304
Si       1.47962711       0.53166415       6.13789472
Si       0.40574534       3.22891231       3.28860502
Si      -1.12265104       4.69310112       0.98197597
Si      -5.00998216       3.34368804       7.48016356
Si       1.61104290       2.48753033       4.86621768
Si       4.27939484       3.45402733       0.24766899
Si      -2.09999600      -1.05406045       6.22437722
Si       5.15331013      -1.77506822       4.13191065
Si      -2.97391129       4.17503510       2.34013556
Si      -4.96284768       1.88505855       5.60175162
Si       3.91379499       2.50073798       4.27005373
Si       1.72885878       3.84469848       1.41019311
Si      -2.77791147       0.54109804       8.46161224
16
Lattice="8.612392142972244 -1.552856258197887 -0.2355325248602053 -5.2702182636729455 6.986376772767564 0.23553260385671299 -2.6223763249871004 -2.1316195745769853 8.075857660499558" Properties=species:S:1:pos:R:3 unique_starting_index=82 config_type=initial n_minim_iter=21 stress="-0.0018527477785270365 -0.00013095997185768576 0.0006293437003191813 -0.00013095997185768576 -0.001985101260489475 -0.0003871110593062408 0.0006293437003191813 -0.0003871110593062408 -0.0016111844761222658" pbc="T T T"
Si      -1.48332825       2.32563423       2.22845739
Si       0.59556970       5.70972966       2.22592316
Si      -5.01987835       5.41915705       6.38415253
Si       1.50974347       0.48458727       6.14608568
Si       0.39776853       3.14523835       3.27190660
Si      -1.06187859       4.75255872       0.94695825
Si      -4.90300008       3.37059277       7.42760170
Si       1.61651370       2.39558472       4.86712081
Si       4.30932039       3.52709496       0.24800547
Si      -2.07894009      -1.15435772       6.23711522
Si       5.13272148      -1.84562061       4.16816798
Si      -2.90234119       4.21835785       2.31695270
Si      -4.90936898       1.87085314       5.58572472
Si       3.91914456       2.48288714       4.29089192
Si       1.73344308       3.82731836       1.43002965
Si      -2.72366750       0.52642192       8.44658699
