10
Lattice="5.28691 0.0 0.0 0.0 6.15293 0.0 0.0 0.0 6.41199" Properties=species:S:1:pos:R:3 unique_starting_index=142 config_type=initial n_minim_iter=1 pbc="T T T"
Si       1.67254411       0.79999965       3.12488012
Si       3.61436589       5.35293035       3.12488012
Si       3.61436589       0.79999965       3.12488012
Si       1.67254411       5.35293035       3.12488012
Si       3.73448554       2.27646535       1.36933240
Si       1.55242446       3.87646465       1.36933240
Si       1.55242446       2.27646535       1.36933240
Si       3.73448554       3.87646465       1.36933240
Si       0.00000000       3.87646465       1.98573367
Si       0.00000000       2.27646535       1.98573367
10
Lattice="5.371772451420864 0.0 0.0 0.0 6.297617419941356 0.0 0.0 0.0 6.4283129491706505" Properties=species:S:1:pos:R:3 unique_starting_index=142 config_type=initial n_minim_iter=2 pbc="T T T"
Si       1.69888426       0.82091472       3.13296273
Si       3.67288819       5.47670270       3.13296273
Si       3.67288819       0.82091472       3.13296273
Si       1.69888426       5.47670270       3.13296273
Si       3.79308543       2.32750021       1.37221988
Si       1.57868702       3.97011721       1.37221988
Si       1.57868702       2.32750021       1.37221988
Si       3.79308543       3.97011721       1.37221988
Si       0.00000000       3.96996049       1.99173032
Si       0.00000000       2.32765693       1.99173032
10
Lattice="5.576929813747621 0.0 0.0 0.0 6.801106420036188 0.0 0.0 0.0 6.465541906995651" Properties=species:S:1:pos:R:3 unique_starting_index=142 config_type=initial n_minim_iter=3 pbc="T T T"
Si       1.76196169       0.89414739       3.15140743
Si       3.81496812       5.90695903       3.15140743
Si       3.81496812       0.89414739       3.15140743
Si       1.76196169       5.90695903       3.15140743
Si       3.93549339       2.50494978       1.37917290
Si       1.64143643       4.29615664       1.37917290
Si       1.64143643       2.50494978       1.37917290
Si       3.93549339       4.29615664       1.37917290
Si       0.00000000       4.29532136       2.00465246
Si       0.00000000       2.50578506       2.00465246
10
Lattice="5.704428881156481 0.0 0.0 0.0 6.983479622224501 0.0 0.0 0.0 6.501865627614486" Properties=species:S:1:pos:R:3 unique_starting_index=142 config_type=initial n_minim_iter=4 pbc="T T T"
Si       1.80041238       0.91864656       3.16923990
Si       3.90401650       6.06483306       3.16923990
Si       3.90401650       0.91864656       3.16923990
Si       1.80041238       6.06483306       3.16923990
Si       4.02475200       2.57089315       1.38673841
Si       1.67967688       4.41258647       1.38673841
Si       1.67967688       2.57089315       1.38673841
Si       4.02475200       4.41258647       1.38673841
Si       0.00000000       4.41055394       2.01602477
Si       0.00000000       2.57292568       2.01602477
10
Lattice="8.293687458282978 0.0 0.0 0.0 12.628947656208016 0.0 0.0 0.0 7.239095816479101" Properties=species:S:1:pos:R:3 unique_starting_index=142 config_type=initial n_minim_iter=5 pbc="T T T"
Si       2.57327204       1.73021549       3.53317679
Si       5.72041542      10.89873216       3.53317679
Si       5.72041542       1.73021549       3.53317679
Si       2.57327204      10.89873216       3.53317679
Si       5.83950402       4.57707821       1.53695956
Si       2.45418344       8.05186944       1.53695956
Si       2.45418344       4.57707821       1.53695956
Si       5.83950402       8.05186944       1.53695956
Si       0.00000000       8.04950606       2.24948249
Si       0.00000000       4.57944159       2.24948249
10
Lattice="6.755125915343216 0.0 0.0 0.0 10.825654170983197 0.0 0.0 0.0 7.015016523127979" Properties=species:S:1:pos:R:3 unique_starting_index=142 config_type=initial n_minim_iter=6 pbc="T T T"
Si       2.10823801       1.48384748       3.41967125
Si       4.64688791       9.34180669       3.41967125
Si       4.64688791       1.48384748       3.41967125
Si       2.10823801       9.34180669       3.41967125
Si       4.76587310       3.93097083       1.49549491
Si       1.98925282       6.89468334       1.49549491
Si       1.98925282       3.93097083       1.49549491
Si       4.76587310       6.89468334       1.49549491
Si       0.00000000       6.88928011       2.17590984
Si       0.00000000       3.93637406       2.17590984
10
Lattice="6.442833209662674 0.0 0.0 0.0 9.000926244397585 0.0 0.0 0.0 6.839833332824765" Properties=species:S:1:pos:R:3 unique_starting_index=142 config_type=initial n_minim_iter=7 pbc="T T T"
Si       2.02234291       1.22590954       3.32865020
Si       4.42049030       7.77501670       3.32865020
Si       4.42049030       1.22590954       3.32865020
Si       2.02234291       7.77501670       3.32865020
Si       4.52662738       3.27971508       1.45790466
Si       1.91620583       5.72121116       1.45790466
Si       1.91620583       3.27971508       1.45790466
Si       4.52662738       5.72121116       1.45790466
Si       0.00000000       5.71291619       2.13330538
Si       0.00000000       3.28801005       2.13330538
10
Lattice="6.77859514814457 0.0 0.0 0.0 8.015601167617964 0.0 0.0 0.0 6.715876915421272" Properties=species:S:1:pos:R:3 unique_starting_index=142 config_type=initial n_minim_iter=8 pbc="T T T"
Si       2.12939701       1.09522387       3.26158272
Si       4.64919814       6.92037730       3.26158272
Si       4.64919814       1.09522387       3.26158272
Si       2.12939701       6.92037730       3.26158272
Si       4.73827880       2.91823896       1.42980320
Si       2.04031635       5.09736221       1.42980320
Si       2.04031635       2.91823896       1.42980320
Si       4.73827880       5.09736221       1.42980320
Si       0.00000000       5.07530269       2.11149113
Si       0.00000000       2.94029848       2.11149113
10
Lattice="6.927863891253563 0.0 0.0 0.0 8.483289886902988 0.0 0.0 0.0 6.709853314853148" Properties=species:S:1:pos:R:3 unique_starting_index=142 config_type=initial n_minim_iter=9 pbc="T T T"
Si       2.18022197       1.17230534       3.25628928
Si       4.74764192       7.31098455       3.25628928
Si       4.74764192       1.17230534       3.25628928
Si       2.18022197       7.31098455       3.25628928
Si       4.83835229       3.07069254       1.42794347
Si       2.08951160       5.41259735       1.42794347
Si       2.08951160       3.07069254       1.42794347
Si       4.83835229       5.41259735       1.42794347
Si       0.00000000       5.38730702       2.11548803
Si       0.00000000       3.09598287       2.11548803
10
Lattice="6.828768985934266 0.0 0.0 0.0 8.3267826861973 0.0 0.0 0.0 6.663738713020132" Properties=species:S:1:pos:R:3 unique_starting_index=142 config_type=initial n_minim_iter=10 pbc="T T T"
Si       2.15294821       1.15352051       3.23185014
Si       4.67582078       7.17326217       3.23185014
Si       4.67582078       1.15352051       3.23185014
Si       2.15294821       7.17326217       3.23185014
Si       4.76757798       3.00982690       1.41894530
Si       2.06119101       5.31695579       1.41894530
Si       2.06119101       3.00982690       1.41894530
Si       4.76757798       5.31695579       1.41894530
Si       0.00000000       5.28687609       2.10343724
Si       0.00000000       3.03990660       2.10343724
10
Lattice="6.818228413468959 0.0 0.0 0.0 8.297076297312278 0.0 0.0 0.0 6.637421887513744" Properties=species:S:1:pos:R:3 unique_starting_index=142 config_type=initial n_minim_iter=11 pbc="T T T"
Si       2.15304775       1.15394675       3.21705767
Si       4.66518066       7.14312954       3.21705767
Si       4.66518066       1.15394675       3.21705767
Si       2.15304775       7.14312954       3.21705767
Si       4.75767275       2.99294009       1.41365482
Si       2.06055567       5.30413620       1.41365482
Si       2.06055567       2.99294009       1.41365482
Si       4.75767275       5.30413620       1.41365482
Si       0.00000000       5.27048917       2.09856174
Si       0.00000000       3.02658713       2.09856174
10
Lattice="6.824820981306577 0.0 0.0 0.0 8.243205776068402 0.0 0.0 0.0 6.588396267021967" Properties=species:S:1:pos:R:3 unique_starting_index=142 config_type=initial n_minim_iter=12 pbc="T T T"
Si       2.16299376       1.15729627       3.18853954
Si       4.66182723       7.08590951       3.18853954
Si       4.66182723       1.15729627       3.18853954
Si       2.16299376       7.08590951       3.18853954
Si       4.75596723       2.95911633       1.40376440
Si       2.06885375       5.28408945       1.40376440
Si       2.06885375       2.95911633       1.40376440
Si       4.75596723       5.28408945       1.40376440
Si       0.00000000       5.24315352       2.09147121
Si      -0.00000000       3.00005226       2.09147121
10
Lattice="6.894879311261505 0.0 0.0 0.0 7.971607285501969 0.0 0.0 0.0 6.484776758086176" Properties=species:S:1:pos:R:3 unique_starting_index=142 config_type=initial n_minim_iter=13 pbc="T T T"
Si       2.21421666       1.15638355       3.12115302
Si       4.68066265       6.81522373       3.12115302
Si       4.68066265       1.15638355       3.12115302
Si       2.21421666       6.81522373       3.12115302
Si       4.78165127       2.81369112       1.38312871
Si       2.11322804       5.15791617       1.38312871
Si       2.11322804       2.81369112       1.38312871
Si       4.78165127       5.15791617       1.38312871
Si       0.00000000       5.09850349       2.09017022
Si      -0.00000000       2.87310379       2.09017022
10
Lattice="6.941222326457776 0.0 0.0 0.0 8.062009200706903 0.0 0.0 0.0 6.738380755233912" Properties=species:S:1:pos:R:3 unique_starting_index=142 config_type=initial n_minim_iter=14 pbc="T T T"
Si       2.24997248       1.19061582       3.23415098
Si       4.69124985       6.87139338       3.23415098
Si       4.69124985       1.19061582       3.23415098
Si       2.24997248       6.87139338       3.23415098
Si       4.80114180       2.82008728       1.43398623
Si       2.14008052       5.24192192       1.43398623
Si       2.14008052       2.82008728       1.43398623
Si       4.80114180       5.24192192       1.43398623
Si       0.00000000       5.19662579       2.19650398
Si      -0.00000000       2.86538341       2.19650398
10
Lattice="6.840254315095637 0.0 0.0 0.0 7.823189280589571 0.0 0.0 0.0 6.726470541675561" Properties=species:S:1:pos:R:3 unique_starting_index=142 config_type=initial n_minim_iter=15 pbc="T T T"
Si       2.21961031       1.15591358       3.22664657
Si       4.62064401       6.66727570       3.22664657
Si       4.62064401       1.15591358       3.22664657
Si       2.21961031       6.66727570       3.22664657
Si       4.73035056       2.73597723       1.43199514
Si       2.10990375       5.08721205       1.43199514
Si       2.10990375       2.73597723       1.43199514
Si       4.73035056       5.08721205       1.43199514
Si       0.00000000       5.04151666       2.19511058
Si      -0.00000000       2.78167262       2.19511058
10
Lattice="6.864096913368895 0.0 0.0 0.0 7.81710966750141 0.0 0.0 0.0 6.75779943333133" Properties=species:S:1:pos:R:3 unique_starting_index=142 config_type=initial n_minim_iter=16 pbc="T T T"
Si       2.22822581       1.15719968       3.24059587
Si       4.63587110       6.65990999       3.24059587
Si       4.63587110       1.15719968       3.24059587
Si       2.22822581       6.65990999       3.24059587
Si       4.74498929       2.73161761       1.43815429
Si       2.11910763       5.08549205       1.43815429
Si       2.11910763       2.73161761       1.43815429
Si       4.74498929       5.08549205       1.43815429
Si       0.00000000       5.04107089       2.20851328
Si      -0.00000000       2.77603878       2.20851328
10
Lattice="6.865754656590173 0.0 0.0 0.0 7.791243842534557 0.0 0.0 0.0 6.783801882716513" Properties=species:S:1:pos:R:3 unique_starting_index=142 config_type=initial n_minim_iter=17 pbc="T T T"
Si       2.22986448       1.15560770       3.25183499
Si       4.63589017       6.63563614       3.25183499
Si       4.63589017       1.15560770       3.25183499
Si       2.22986448       6.63563614       3.25183499
Si       4.74441805       2.72034465       1.44330773
Si       2.12133661       5.07089920       1.44330773
Si       2.12133661       2.72034465       1.44330773
Si       4.74441805       5.07089920       1.44330773
Si       0.00000000       5.02775697       2.22023149
Si      -0.00000000       2.76348688       2.22023149
10
Lattice="6.86499368278176 0.0 0.0 0.0 7.748395154325197 0.0 0.0 0.0 6.847204711829796" Properties=species:S:1:pos:R:3 unique_starting_index=142 config_type=initial n_minim_iter=18 pbc="T T T"
Si       2.23212060       1.15498392       3.27916579
Si       4.63287309       6.59341123       3.27916579
Si       4.63287309       1.15498392       3.27916579
Si       2.23212060       6.59341123       3.27916579
Si       4.73968722       2.69976827       1.45581141
Si       2.12530646       5.04862688       1.45581141
Si       2.12530646       2.69976827       1.45581141
Si       4.73968722       5.04862688       1.45581141
Si       0.00000000       5.00885074       2.24907686
Si      -0.00000000       2.73954442       2.24907686
10
Lattice="6.811408491513652 0.0 0.0 0.0 7.639791398020311 0.0 0.0 0.0 7.008083100261412" Properties=species:S:1:pos:R:3 unique_starting_index=142 config_type=initial n_minim_iter=19 pbc="T T T"
Si       2.22025313       1.15559724       3.34696789
Si       4.59115537       6.48419416       3.34696789
Si       4.59115537       1.15559724       3.34696789
Si       2.22025313       6.48419416       3.34696789
Si       4.69058392       2.64618084       1.48692696
Si       2.12082457       4.99361055       1.48692696
Si       2.12082457       2.64618084       1.48692696
Si       4.69058392       4.99361055       1.48692696
Si       0.00000000       4.96391967       2.32658587
Si      -0.00000000       2.67587172       2.32658587
10
Lattice="6.859721456229031 0.0 0.0 0.0 7.657044389267835 0.0 0.0 0.0 7.128952877102148" Properties=species:S:1:pos:R:3 unique_starting_index=142 config_type=initial n_minim_iter=20 pbc="T T T"
Si       2.23299824       1.17193396       3.39794051
Si       4.62672322       6.48511043       3.39794051
Si       4.62672322       1.17193396       3.39794051
Si       2.23299824       6.48511043       3.39794051
Si       4.71126921       2.64057455       1.50706910
Si       2.14845224       5.01646984       1.50706910
Si       2.14845224       2.64057455       1.50706910
Si       4.71126921       5.01646984       1.50706910
Si       0.00000000       4.99527478       2.39122568
Si      -0.00000000       2.66176961       2.39122568
10
Lattice="6.789525602512112 0.0 0.0 0.0 7.555341295876486 0.0 0.0 0.0 7.113695176128406" Properties=species:S:1:pos:R:3 unique_starting_index=142 config_type=initial n_minim_iter=21 pbc="T T T"
Si       2.21010479       1.15730979       3.38962979
Si       4.57942081       6.39803151       3.38962979
Si       4.57942081       1.15730979       3.38962979
Si       2.21010479       6.39803151       3.38962979
Si       4.66202233       2.60499678       1.50356434
Si       2.12750327       4.95034452       1.50356434
Si       2.12750327       2.60499678       1.50356434
Si       4.66202233       4.95034452       1.50356434
Si       0.00000000       4.92973124       2.38874300
Si      -0.00000000       2.62561006       2.38874300
10
Lattice="6.783879116420273 0.0 0.0 0.0 7.560382830623744 0.0 0.0 0.0 7.126092045264631" Properties=species:S:1:pos:R:3 unique_starting_index=142 config_type=initial n_minim_iter=22 pbc="T T T"
Si       2.20753346       1.15950139       3.39494528
Si       4.57634566       6.40088144       3.39494528
Si       4.57634566       1.15950139       3.39494528
Si       2.20753346       6.40088144       3.39494528
Si       4.65677699       2.60560710       1.50529505
Si       2.12710213       4.95477573       1.50529505
Si       2.12710213       2.60560710       1.50529505
Si       4.65677699       4.95477573       1.50529505
Si       0.00000000       4.93509866       2.39586792
Si      -0.00000000       2.62528417       2.39586792
10
Lattice="6.774602111749396 0.0 0.0 0.0 7.555274620010199 0.0 0.0 0.0 7.136534782710219" Properties=species:S:1:pos:R:3 unique_starting_index=142 config_type=initial n_minim_iter=23 pbc="T T T"
Si       2.20373716       1.16005883       3.39930988
Si       4.57086495       6.39521579       3.39930988
Si       4.57086495       1.16005883       3.39930988
Si       2.20373716       6.39521579       3.39930988
Si       4.64902588       2.60281549       1.50660060
Si       2.12557623       4.95245913       1.50660060
Si       2.12557623       2.60281549       1.50660060
Si       4.64902588       4.95245913       1.50660060
Si       0.00000000       4.93366911       2.40240043
Si      -0.00000000       2.62160551       2.40240043
10
Lattice="6.759525770760001 0.0 0.0 0.0 7.5457460487615045 0.0 0.0 0.0 7.156168975988935" Properties=species:S:1:pos:R:3 unique_starting_index=142 config_type=initial n_minim_iter=24 pbc="T T T"
Si       2.19724686       1.16103868       3.40756439
Si       4.56227891       6.38470737       3.40756439
Si       4.56227891       1.16103868       3.40756439
Si       2.19724686       6.38470737       3.40756439
Si       4.63607662       2.59766583       1.50898182
Si       2.12344915       4.94808022       1.50898182
Si       2.12344915       2.59766583       1.50898182
Si       4.63607662       4.94808022       1.50898182
Si       0.00000000       4.93089932       2.41473300
Si      -0.00000000       2.61484673       2.41473300
10
Lattice="6.747397445890441 0.0 0.0 0.0 7.536292582851386 0.0 0.0 0.0 7.173268057258661" Properties=species:S:1:pos:R:3 unique_starting_index=142 config_type=initial n_minim_iter=25 pbc="T T T"
Si       2.19168347       1.16170321       3.41477935
Si       4.55571398       6.37458938       3.41477935
Si       4.55571398       1.16170321       3.41477935
Si       2.19168347       6.37458938       3.41477935
Si       4.62539920       2.59281155       1.51088076
Si       2.12199825       4.94348103       1.51088076
Si       2.12199825       2.59281155       1.51088076
Si       4.62539920       4.94348103       1.51088076
Si       0.00000000       4.92767787       2.42577038
Si      -0.00000000       2.60861472       2.42577038
10
Lattice="6.746705864674627 0.0 0.0 0.0 7.53575942189099 0.0 0.0 0.0 7.174215184831824" Properties=species:S:1:pos:R:3 unique_starting_index=142 config_type=initial n_minim_iter=26 pbc="T T T"
Si       2.19135657       1.16174094       3.41517968
Si       4.55534929       6.37401848       3.41517968
Si       4.55534929       1.16174094       3.41517968
Si       2.19135657       6.37401848       3.41517968
Si       4.62478907       2.59253829       1.51097606
Si       2.12191679       4.94322113       1.51097606
Si       2.12191679       2.59253829       1.51097606
Si       4.62478907       4.94322113       1.51097606
Si       0.00000000       4.92749472       2.42640014
Si      -0.00000000       2.60826470       2.42640014
10
Lattice="6.72200634709055 0.0 0.0 0.0 7.5167502356609415 0.0 0.0 0.0 7.208069844156214" Properties=species:S:1:pos:R:3 unique_starting_index=142 config_type=initial n_minim_iter=27 pbc="T T T"
Si       2.17967632       1.16308098       3.42948675
Si       4.54233003       6.35366925       3.42948675
Si       4.54233003       1.16308098       3.42948675
Si       2.17967632       6.35366925       3.42948675
Si       4.60301487       2.58280099       1.51435344
Si       2.11899147       4.93394924       1.51435344
Si       2.11899147       2.58280099       1.51435344
Si       4.60301487       4.93394924       1.51435344
Si       0.00000000       4.92095390       2.44897367
Si      -0.00000000       2.59579633       2.44897367
10
Lattice="6.715495169005409 0.0 0.0 0.0 7.512070811130364 0.0 0.0 0.0 7.21615132692744" Properties=species:S:1:pos:R:3 unique_starting_index=142 config_type=initial n_minim_iter=28 pbc="T T T"
Si       2.17645271       1.16343418       3.43291446
Si       4.53904246       6.34863663       3.43291446
Si       4.53904246       1.16343418       3.43291446
Si       2.17645271       6.34863663       3.43291446
Si       4.59731158       2.58039638       1.51495591
Si       2.11818359       4.93167443       1.51495591
Si       2.11818359       2.58039638       1.51495591
Si       4.59731158       4.93167443       1.51495591
Si       0.00000000       4.91933836       2.45474482
Si      -0.00000000       2.59273245       2.45474482
10
Lattice="6.690749392983978 0.0 0.0 0.0 7.494860093298846 0.0 0.0 0.0 7.246070633139278" Properties=species:S:1:pos:R:3 unique_starting_index=142 config_type=initial n_minim_iter=29 pbc="T T T"
Si       2.16415173       1.16475364       3.44563065
Si       4.52659766       6.33010646       3.44563065
Si       4.52659766       1.16475364       3.44563065
Si       2.16415173       6.33010646       3.44563065
Si       4.57577074       2.57154377       1.51701434
Si       2.11497865       4.92331633       1.51701434
Si       2.11497865       2.57154377       1.51701434
Si       4.57577074       4.92331633       1.51701434
Si       0.00000000       4.91339249       2.47640266
Si      -0.00000000       2.58146760       2.47640266
10
Lattice="6.685668891511885 0.0 0.0 0.0 7.491662492110357 0.0 0.0 0.0 7.251855800147169" Properties=species:S:1:pos:R:3 unique_starting_index=142 config_type=initial n_minim_iter=30 pbc="T T T"
Si       2.16154182       1.16503631       3.44811304
Si       4.52412707       6.32662619       3.44811304
Si       4.52412707       1.16503631       3.44811304
Si       2.16154182       6.32662619       3.44811304
Si       4.57140971       2.56987412       1.51728678
Si       2.11425918       4.92178837       1.51728678
Si       2.11425918       2.56987412       1.51728678
Si       4.57140971       4.92178837       1.51728678
Si       0.00000000       4.91231077       2.48079433
Si      -0.00000000       2.57935173       2.48079433
10
Lattice="6.66082975497282 0.0 0.0 0.0 7.476352715986128 0.0 0.0 0.0 7.282066619375482" Properties=species:S:1:pos:R:3 unique_starting_index=142 config_type=initial n_minim_iter=31 pbc="T T T"
Si       2.14877852       1.16637854       3.46118770
Si       4.51205123       6.30997418       3.46118770
Si       4.51205123       1.16637854       3.46118770
Si       2.14877852       6.30997418       3.46118770
Si       4.55022338       2.56189370       1.51900526
Si       2.11060637       4.91445901       1.51900526
Si       2.11060637       2.56189370       1.51900526
Si       4.55022338       4.91445901       1.51900526
Si       0.00000000       4.90709678       2.50291406
Si      -0.00000000       2.56925594       2.50291406
10
Lattice="6.63515760710005 0.0 0.0 0.0 7.461360433989798 0.0 0.0 0.0 7.321207083008711" Properties=species:S:1:pos:R:3 unique_starting_index=142 config_type=initial n_minim_iter=32 pbc="T T T"
Si       2.13547192       1.16755944       3.47854643
Si       4.49968569       6.29380099       3.47854643
Si       4.49968569       1.16755944       3.47854643
Si       2.13547192       6.29380099       3.47854643
Si       4.52894227       2.55418432       1.52239966
Si       2.10621533       4.90717611       1.52239966
Si       2.10621533       2.55418432       1.52239966
Si       4.52894227       4.90717611       1.52239966
Si       0.00000000       4.90169345       2.52839693
Si      -0.00000000       2.55966698       2.52839693
10
Lattice="6.607111398636865 0.0 0.0 0.0 7.4455072407192 0.0 0.0 0.0 7.364789975310965" Properties=species:S:1:pos:R:3 unique_starting_index=142 config_type=initial n_minim_iter=33 pbc="T T T"
Si       2.12116572       1.16852849       3.49792523
Si       4.48594568       6.27697875       3.49792523
Si       4.48594568       1.16852849       3.49792523
Si       2.12116572       6.27697875       3.49792523
Si       4.50662997       2.54621649       1.52664826
Si       2.10048143       4.89929075       1.52664826
Si       2.10048143       2.54621649       1.52664826
Si       4.50662997       4.89929075       1.52664826
Si       0.00000000       4.89543706       2.55573451
Si      -0.00000000       2.55007018       2.55573451
10
Lattice="6.581800062317081 0.0 0.0 0.0 7.433866274668303 0.0 0.0 0.0 7.412644737171399" Properties=species:S:1:pos:R:3 unique_starting_index=142 config_type=initial n_minim_iter=34 pbc="T T T"
Si       2.10749834       1.17014158       3.51921248
Si       4.47430172       6.26372469       3.51921248
Si       4.47430172       1.17014158       3.51921248
Si       2.10749834       6.26372469       3.51921248
Si       4.48684877       2.53963116       1.53171082
Si       2.09495129       4.89423512       1.53171082
Si       2.09495129       2.53963116       1.53171082
Si       4.48684877       4.89423512       1.53171082
Si       0.00000000       4.89176412       2.58493858
Si      -0.00000000       2.54210216       2.58493858
10
Lattice="6.549861227135411 0.0 0.0 0.0 7.409977797443092 0.0 0.0 0.0 7.459585445372549" Properties=species:S:1:pos:R:3 unique_starting_index=142 config_type=initial n_minim_iter=35 pbc="T T T"
Si       2.09161079       1.16973274       3.53983828
Si       4.45825044       6.24024506       3.53983828
Si       4.45825044       1.16973274       3.53983828
Si       2.09161079       6.24024506       3.53983828
Si       4.46331067       2.52891901       1.53665969
Si       2.08655055       4.88105879       1.53665969
Si       2.08655055       2.52891901       1.53665969
Si       4.46331067       4.88105879       1.53665969
Si       0.00000000       4.87970963       2.61412854
Si      -0.00000000       2.53026817       2.61412854
10
Lattice="6.547926828151784 0.0 0.0 0.0 7.411654068442479 0.0 0.0 0.0 7.469406569346626" Properties=species:S:1:pos:R:3 unique_starting_index=142 config_type=initial n_minim_iter=36 pbc="T T T"
Si       2.08995630       1.17061171       3.54420743
Si       4.45797053       6.24104236       3.54420743
Si       4.45797053       1.17061171       3.54420743
Si       2.08995630       6.24104236       3.54420743
Si       4.46181656       2.52897926       1.53782915
Si       2.08611027       4.88267481       1.53782915
Si       2.08611027       2.52897926       1.53782915
Si       4.46181656       4.88267481       1.53782915
Si       0.00000000       4.88148773       2.61986024
Si      -0.00000000       2.53016634       2.61986024
10
Lattice="6.5428336613674025 0.0 0.0 0.0 7.409944826443191 0.0 0.0 0.0 7.482198852985437" Properties=species:S:1:pos:R:3 unique_starting_index=142 config_type=initial n_minim_iter=37 pbc="T T T"
Si       2.08689565       1.17117768       3.54984367
Si       4.45593801       6.23876715       3.54984367
Si       4.45593801       1.17117768       3.54984367
Si       2.08689565       6.23876715       3.54984367
Si       4.45813356       2.52771421       1.53929809
Si       2.08470010       4.88223061       1.53929809
Si       2.08470010       2.52771421       1.53929809
Si       4.45813356       4.88223061       1.53929809
Si       0.00000000       4.88125738       2.62754397
Si      -0.00000000       2.52868744       2.62754397
10
Lattice="6.540186812488593 0.0 0.0 0.0 7.408401130325265 0.0 0.0 0.0 7.48749772975563" Properties=species:S:1:pos:R:3 unique_starting_index=142 config_type=initial n_minim_iter=38 pbc="T T T"
Si       2.08543884       1.17128645       3.55216406
Si       4.45474798       6.23711468       3.55216406
Si       4.45474798       1.17128645       3.55216406
Si       2.08543884       6.23711468       3.55216406
Si       4.45625836       2.52690128       1.53989727
Si       2.08392845       4.88149985       1.53989727
Si       2.08392845       2.52690128       1.53989727
Si       4.45625836       4.88149985       1.53989727
Si       0.00000000       4.88061214       2.63077388
Si      -0.00000000       2.52778899       2.63077388
10
Lattice="6.514641169019618 0.0 0.0 0.0 7.393276363360118 0.0 0.0 0.0 7.538764511680128" Properties=species:S:1:pos:R:3 unique_starting_index=142 config_type=initial n_minim_iter=39 pbc="T T T"
Si       2.07140573       1.17228453       3.57458884
Si       4.44323544       6.22099183       3.57458884
Si       4.44323544       1.17228453       3.57458884
Si       2.07140573       6.22099183       3.57458884
Si       4.43824094       2.51898255       1.54568940
Si       2.07640023       4.87429382       1.54568940
Si       2.07640023       2.51898255       1.54568940
Si       4.43824094       4.87429382       1.54568940
Si       0.00000000       4.87420725       2.66208345
Si      -0.00000000       2.51906911       2.66208345
10
Lattice="6.489299182550695 0.0 0.0 0.0 7.376477376015459 0.0 0.0 0.0 7.590688249264611" Properties=species:S:1:pos:R:3 unique_starting_index=142 config_type=initial n_minim_iter=40 pbc="T T T"
Si       2.05740003       1.17298356       3.59711849
Si       4.43189915       6.20349381       3.59711849
Si       4.43189915       1.17298356       3.59711849
Si       2.05740003       6.20349381       3.59711849
Si       4.42113546       2.51041810       1.55164642
Si       2.06816372       4.86605928       1.55164642
Si       2.06816372       2.51041810       1.55164642
Si       4.42113546       4.86605928       1.55164642
Si       0.00000000       4.86655679       2.69397789
Si      -0.00000000       2.50992059       2.69397789
10
Lattice="6.466694954127026 0.0 0.0 0.0 7.362610548073143 0.0 0.0 0.0 7.644194009223624" Properties=species:S:1:pos:R:3 unique_starting_index=142 config_type=initial n_minim_iter=41 pbc="T T T"
Si       2.04424353       1.17414353       3.62021032
Si       4.42245142       6.18846702       3.62021032
Si       4.42245142       1.17414353       3.62021032
Si       2.04424353       6.18846702       3.62021032
Si       4.40662477       2.50272322       1.55793205
Si       2.06007018       4.85988733       1.55793205
Si       2.06007018       2.50272322       1.55793205
Si       4.40662477       4.85988733       1.55793205
Si       0.00000000       4.86076398       2.72679839
Si      -0.00000000       2.50184657       2.72679839
10
Lattice="6.439817145462895 0.0 0.0 0.0 7.339450619770845 0.0 0.0 0.0 7.695766130033266" Properties=species:S:1:pos:R:3 unique_starting_index=142 config_type=initial n_minim_iter=42 pbc="T T T"
Si       2.02980993       1.17373396       3.64214237
Si       4.41000722       6.16571666       3.64214237
Si       4.41000722       1.17373396       3.64214237
Si       2.02980993       6.16571666       3.64214237
Si       4.38985677       2.49186516       1.56392631
Si       2.04996037       4.84758546       1.56392631
Si       2.04996037       2.49186516       1.56392631
Si       4.38985677       4.84758546       1.56392631
Si       0.00000000       4.84864193       2.75921177
Si      -0.00000000       2.49080869       2.75921177
10
Lattice="6.439302789247223 0.0 0.0 0.0 7.339495692179785 0.0 0.0 0.0 7.698440114818044" Properties=species:S:1:pos:R:3 unique_starting_index=142 config_type=initial n_minim_iter=43 pbc="T T T"
Si       2.02937250       1.17389723       3.64329152
Si       4.40993029       6.16559846       3.64329152
Si       4.40993029       1.17389723       3.64329152
Si       2.02937250       6.16559846       3.64329152
Si       4.38960570       2.49172748       1.56425916
Si       2.04969709       4.84776821       1.56425916
Si       2.04969709       2.49172748       1.56425916
Si       4.38960570       4.84776821       1.56425916
Si       0.00000000       4.84882348       2.76082431
Si      -0.00000000       2.49067221       2.76082431
10
Lattice="6.436279373803803 0.0 0.0 0.0 7.338998382971768 0.0 0.0 0.0 7.711608167216569" Properties=species:S:1:pos:R:3 unique_starting_index=142 config_type=initial n_minim_iter=44 pbc="T T T"
Si       2.02704867       1.17459283       3.64893612
Si       4.40923070       6.16440556       3.64893612
Si       4.40923070       1.17459283       3.64893612
Si       2.02704867       6.16440556       3.64893612
Si       4.38804611       2.49080081       1.56588793
Si       2.04823326       4.84819758       1.56588793
Si       2.04823326       2.49080081       1.56588793
Si       4.38804611       4.84819758       1.56588793
Si       0.00000000       4.84924539       2.76881477
Si      -0.00000000       2.48975299       2.76881477
10
Lattice="6.4316254977574285 0.0 0.0 0.0 7.335702223444226 0.0 0.0 0.0 7.723382533545455" Properties=species:S:1:pos:R:3 unique_starting_index=142 config_type=initial n_minim_iter=45 pbc="T T T"
Si       2.02429138       1.17478631       3.65392595
Si       4.40733412       6.16091591       3.65392595
Si       4.40733412       1.17478631       3.65392595
Si       2.02429138       6.16091591       3.65392595
Si       4.38537263       2.48898359       1.56730659
Si       2.04625287       4.84671863       1.56730659
Si       2.04625287       2.48898359       1.56730659
Si       4.38537263       4.84671863       1.56730659
Si       0.00000000       4.84775195       2.77614969
Si      -0.00000000       2.48795027       2.77614969
10
Lattice="6.409454261732568 0.0 0.0 0.0 7.319085040233528 0.0 0.0 0.0 7.777140156005399" Properties=species:S:1:pos:R:3 unique_starting_index=142 config_type=initial n_minim_iter=46 pbc="T T T"
Si       2.01143351       1.17540612       3.67663627
Si       4.39802075       6.14367892       3.67663627
Si       4.39802075       1.17540612       3.67663627
Si       2.01143351       6.14367892       3.67663627
Si       4.37264144       2.48014669       1.57376458
Si       2.03681283       4.83893835       1.57376458
Si       2.03681283       2.48014669       1.57376458
Si       4.37264144       4.83893835       1.57376458
Si       0.00000000       4.83986590       2.80981955
Si      -0.00000000       2.47921914       2.80981955
10
Lattice="6.406867999197877 0.0 0.0 0.0 7.317381649696169 0.0 0.0 0.0 7.783572001828009" Properties=species:S:1:pos:R:3 unique_starting_index=142 config_type=initial n_minim_iter=47 pbc="T T T"
Si       2.00992315       1.17552247       3.67933054
Si       4.39694485       6.14185918       3.67933054
Si       4.39694485       1.17552247       3.67933054
Si       2.00992315       6.14185918       3.67933054
Si       4.37122805       2.47918211       1.57454370
Si       2.03563995       4.83819954       1.57454370
Si       2.03563995       2.47918211       1.57454370
Si       4.37122805       4.83819954       1.57454370
Si       0.00000000       4.83909798       2.81388092
Si      -0.00000000       2.47828366       2.81388092
10
Lattice="6.398329358276798 0.0 0.0 0.0 7.311619105235692 0.0 0.0 0.0 7.804475700392975" Properties=species:S:1:pos:R:3 unique_starting_index=142 config_type=initial n_minim_iter=48 pbc="T T T"
Si       2.00497664       1.17586040       3.68807283
Si       4.39335272       6.13575871       3.68807283
Si       4.39335272       1.17586040       3.68807283
Si       2.00497664       6.13575871       3.68807283
Si       4.36656468       2.47597172       1.57707311
Si       2.03176467       4.83564738       1.57707311
Si       2.03176467       2.47597172       1.57707311
Si       4.36656468       4.83564738       1.57707311
Si       0.00000000       4.83644423       2.82711432
Si      -0.00000000       2.47517487       2.82711432
10
Lattice="6.344094728939206 0.0 0.0 0.0 7.275080653805586 0.0 0.0 0.0 7.936286358823751" Properties=species:S:1:pos:R:3 unique_starting_index=142 config_type=initial n_minim_iter=49 pbc="T T T"
Si       1.97392653       1.17780212       3.74291803
Si       4.37016820       6.09727853       3.74291803
Si       4.37016820       1.17780212       3.74291803
Si       1.97392653       6.09727853       3.74291803
Si       4.33721916       2.45576601       1.59295471
Si       2.00687557       4.81931464       1.59295471
Si       2.00687557       2.45576601       1.59295471
Si       4.33721916       4.81931464       1.59295471
Si       0.00000000       4.81930346       2.91125544
Si      -0.00000000       2.45577719       2.91125544
10
Lattice="6.249738724343042 0.0 0.0 0.0 7.249002309685085 0.0 0.0 0.0 8.250822809919262" Properties=species:S:1:pos:R:3 unique_starting_index=142 config_type=initial n_minim_iter=50 pbc="T T T"
Si       1.91227161       1.19016849       3.86984885
Si       4.33746711       6.05883382       3.86984885
Si       4.33746711       1.19016849       3.86984885
Si       1.91227161       6.05883382       3.86984885
Si       4.29792383       2.42770955       1.63042013
Si       1.95181490       4.82129276       1.63042013
Si       1.95181490       2.42770955       1.63042013
Si       4.29792383       4.82129276       1.63042013
Si       0.00000000       4.81520680       3.12079395
Si      -0.00000000       2.43379551       3.12079395
