16
Lattice="7.7575578773928235 1.454014590736946e-31 2.1808711830455836e-31 -1.4555312280212575e-31 7.7656495441386335 1.2498040968075436e-13 -1.4147357871997875e-31 -8.099057953523908e-14 5.032344338235944" Properties=species:S:1:pos:R:3 unique_starting_index=112 config_type=initial n_minim_iter=1 energy=-2604.3335609214296 free_energy=-2604.3335609214296 pbc="T T T"
Si       0.04056259       5.55833449      -0.07996415
Si       7.71699529       2.20731505      -0.07996415
Si       2.12933780      -0.00741266       5.11364953
Si       5.62822008       7.77306220       5.11364953
Si       3.91934153       6.09013983       5.11230849
Si       3.83821635       1.67550972       5.11230849
Si       6.00811674       3.89023743      -0.08130519
Si       1.74944114       3.87541211      -0.08130519
Si       6.57504781       0.98463775       3.12740698
Si       1.18251007       6.78101180       3.12740698
Si       6.81019196       6.56319127       1.87534418
Si       0.94736592       1.20245828       1.87534418
Si       2.69626887       2.89818703       1.90493736
Si       5.06128901       4.86746252       1.90493736
Si       2.93141302       5.08528305       3.15700016
Si       4.82614486       2.68036650       3.15700016
16
Lattice="7.71106292548622 1.4451085007889288e-31 2.1690720350202445e-31 -1.4546455301374691e-31 7.759893285047693 1.2488484169126924e-13 -1.4151329209762182e-31 -8.106252194634266e-14 5.036696261189389" Properties=species:S:1:pos:R:3 unique_starting_index=112 config_type=initial n_minim_iter=2 stress="-0.001636596233833966 5.157301341973801e-17 5.4335853424366834e-17 5.157301341973801e-17 -0.00330886767564709 -1.0517210950953715e-16 5.4335853424366834e-17 -1.0517210950953715e-16 -0.002472180989425255" pbc="T T T"
Si       0.03943694       5.55392858      -0.08054624
Si       7.67162599       2.20596471      -0.08054624
Si       2.11740800      -0.00800778       5.11861657
Si       5.59365493       7.76790106       5.11861657
Si       3.89496840       6.08591135       5.11724250
Si       3.81609452       1.67398194       5.11724250
Si       5.97293946       3.88795442      -0.08192031
Si       1.73812346       3.87193887      -0.08192031
Si       6.53562403       0.98457618       3.12971263
Si       1.17543889       6.77531710       3.12971263
Si       6.76839248       6.55849609       1.87768731
Si       0.94267045       1.20139719       1.87768731
Si       2.68009257       2.89537046       1.90698363
Si       5.03097036       4.86452282       1.90698363
Si       2.91286101       5.08134384       3.15900895
Si       4.79820191       2.67854945       3.15900895
16
Lattice="7.678477198835165 1.4412004843073101e-31 2.1678780297945685e-31 -1.4587797882539458e-31 7.793860609426261 1.2541332577025744e-13 -1.4168638756343466e-31 -8.147007602858305e-14 5.061286261432172" Properties=species:S:1:pos:R:3 unique_starting_index=112 config_type=initial n_minim_iter=3 stress="-0.0009274462651408373 1.8620241420683961e-16 5.516429790970347e-17 1.8620241420683961e-16 0.00012160665578309165 3.4821317617420794e-18 5.516429790970347e-17 3.4821317617420794e-18 0.0021982569632857003" pbc="T T T"
Si       0.03738509       5.57786499      -0.08198876
Si       7.64109211       2.21599562      -0.08198876
Si       2.10987856      -0.00934973       5.14474386
Si       5.56859864       7.80321034       5.14474386
Si       3.87662369       6.11292593       5.14327502
Si       3.80185351       1.68093468       5.14327502
Si       5.94911716       3.90628004      -0.08345760
Si       1.72936004       3.88758057      -0.08345760
Si       6.50798815       0.99018822       3.14415387
Si       1.17048905       6.80367239       3.14415387
Si       6.73783048       6.58759602       1.88837141
Si       0.94064672       1.20626459       1.88837141
Si       2.66874955       2.90674209       1.91713239
Si       5.00972764       4.88711852       1.91713239
Si       2.89859188       5.10319490       3.17291485
Si       4.77988532       2.69066571       3.17291485
16
Lattice="7.671301059083409 1.4436899685681822e-31 2.146050048885525e-31 -1.4741483738052088e-31 7.896133215263038 1.2704626196591556e-13 -1.4075006410859183e-31 -8.020853759698105e-14 4.982339778929278" Properties=species:S:1:pos:R:3 unique_starting_index=112 config_type=initial n_minim_iter=4 stress="-0.0017614450336794346 2.302861015474908e-16 8.644925537325933e-17 2.302861015474908e-16 0.003662580653065626 -1.968100069135904e-17 8.644925537325933e-17 -1.968100069135904e-17 -0.0021042053837432807" pbc="T T T"
Si       0.02316619       5.65080713      -0.08738970
Si       7.64813487       2.24532609      -0.08738970
Si       2.11419725      -0.01916509       5.07201790
Si       5.55710381       7.91529831       5.07201790
Si       3.85881672       6.19339270       5.06972948
Si       3.81248434       1.70274052       5.06972948
Si       5.94984778       3.96723170      -0.08967812
Si       1.72145328       3.92890151      -0.08967812
Si       6.50283850       1.01136100       3.09139383
Si       1.16846256       6.88477222       3.09139383
Si       6.71830064       6.67841605       1.86740734
Si       0.95300042       1.21771716       1.86740734
Si       2.66718797       2.93670561       1.89094595
Si       5.00411309       4.95942760       1.89094595
Si       2.88265011       5.16578377       3.11493244
Si       4.78865095       2.73034945       3.11493244
16
Lattice="7.726978655420707 1.4563681463941378e-31 2.159016459010257e-31 -1.4630330661235984e-31 7.849307137253722 1.2632552325548896e-13 -1.4060951056185474e-31 -8.000761005757032e-14 4.97118423980915" Properties=species:S:1:pos:R:3 unique_starting_index=112 config_type=initial n_minim_iter=5 stress="-0.0008644242580023977 1.8116505822598948e-16 3.1298841360181112e-18 1.8116505822598948e-16 0.00104227644256167 -1.2887758207133398e-17 3.1298841360181112e-18 -1.2887758207133398e-17 -0.0007131093642904812" pbc="T T T"
Si       0.01237993       5.61551275      -0.09252225
Si       7.71459873       2.23379439      -0.09252225
Si       2.13561004      -0.02563485       5.06704970
Si       5.59136862       7.87494198       5.06704970
Si       3.87586926       6.15844796       5.06370649
Si       3.85110940       1.69085918       5.06370649
Si       5.99909936       3.95028841      -0.09586546
Si       1.72787929       3.89901872      -0.09586546
Si       6.55073763       1.01233872       3.08090770
Si       1.17624103       6.83696841       3.08090770
Si       6.75577630       6.64240922       1.87020936
Si       0.97120236       1.20689792       1.87020936
Si       2.68724830       2.91231485       1.89027654
Si       5.03973036       4.93699229       1.89027654
Si       2.89228697       5.13155149       3.10097488
Si       4.83469169       2.71775565       3.10097488
16
Lattice="7.764433694214443 1.464091995674254e-31 2.1675586878862846e-31 -1.457941510911678e-31 7.826253974938158 1.2603539225052118e-13 -1.4044146785720235e-31 -7.978576405035896e-14 4.960656953176709" Properties=species:S:1:pos:R:3 unique_starting_index=112 config_type=initial n_minim_iter=6 stress="9.026311156806497e-06 6.482163477965159e-17 3.222666501829269e-17 6.482163477965159e-17 -9.428869836617789e-05 -1.2319793655564464e-16 3.222666501829269e-17 -1.2319793655564464e-16 7.37490188456434e-05" pbc="T T T"
Si       0.00635148       5.59794433      -0.09544549
Si       7.75808221       2.22830964      -0.09544549
Si       2.15079324      -0.02820245       5.06028329
Si       5.61364045       7.85445642       5.06028329
Si       3.88856833       6.14143663       5.05610245
Si       3.87586536       1.68481735       5.05610245
Si       6.03301009       3.94132943      -0.09962634
Si       1.73142360       3.88492454      -0.09962634
Si       6.58389457       1.01348422       3.07187563
Si       1.18053913       6.81276975       3.07187563
Si       6.78146176       6.62603563       1.87103780
Si       0.98297194       1.20021835       1.87103780
Si       2.70167772       2.89964276       1.88878132
Si       5.06275597       4.92661121       1.88878132
Si       2.89924491       5.11334533       3.08961915
Si       4.86518878       2.71290864       3.08961915
16
Lattice="7.799001515282537 1.4709179500955849e-31 2.1756929590129755e-31 -1.455156979141618e-31 7.813548036300784 1.25794830062403e-13 -1.4013859108624543e-31 -7.957790810103171e-14 4.946290192896839" Properties=species:S:1:pos:R:3 unique_starting_index=112 config_type=initial n_minim_iter=7 stress="0.0007003013866806394 7.072037827835577e-17 -2.6704309506149964e-17 7.072037827835577e-17 -0.0008021804779571252 -1.7265717353114202e-16 -2.6704309506149964e-17 -1.7265717353114202e-16 0.0005527243239031819" pbc="T T T"
Si       0.00377631       5.58826191      -0.09695874
Si       7.79522520       2.22528612      -0.09695874
Si       2.16866629      -0.02518312       5.04867452
Si       5.63033523       7.83873116       5.04867452
Si       3.90327707       6.13206014       5.04324893
Si       3.89572445       1.68148790       5.04324893
Si       6.06816704       3.93195714      -0.10238433
Si       1.73083447       3.88159090      -0.10238433
Si       6.61752477       1.01523722       3.06011171
Si       1.18147675       6.79831082       3.06011171
Si       6.80479103       6.62084371       1.87143429
Si       0.99421049       1.19270433       1.87143429
Si       2.71802401       2.89153680       1.88617848
Si       5.08097751       4.92201123       1.88617848
Si       2.90529027       5.09947835       3.07485590
Si       4.89371125       2.71406969       3.07485590
16
Lattice="7.779482959160235 1.4678703302614659e-31 2.171742405449122e-31 -1.4595539888333688e-31 7.839975998000692 1.262131167767577e-13 -1.3992090419691448e-31 -7.951451675722175e-14 4.942069194176982" Properties=species:S:1:pos:R:3 unique_starting_index=112 config_type=initial n_minim_iter=8 stress="-0.00023885255525912593 1.3996502879013588e-16 -2.3020563945746034e-17 1.3996502879013588e-16 0.00019500087544087644 -6.454966130387187e-17 -2.3020563945746034e-17 -6.454966130387187e-17 -3.900080007691429e-05" pbc="T T T"
Si       0.00852030       5.60871945      -0.09394829
Si       7.77096266       2.23125655      -0.09394829
Si       2.16719992      -0.01793371       5.04151587
Si       5.61228304       7.85790971       5.04151587
Si       3.89826178       6.15124455       5.03601749
Si       3.88122118       1.68873145       5.03601749
Si       6.05694140       3.93792171      -0.09944668
Si       1.72254156       3.90205429      -0.09944668
Si       6.60369862       1.01776410       3.05813547
Si       1.17578434       6.82221190       3.05813547
Si       6.78811637       6.64524496       1.87034927
Si       0.99136659       1.19473104       1.87034927
Si       2.71395714       2.90222390       1.88393373
Si       5.06552582       4.93775210       1.88393373
Si       2.89837489       5.11471904       3.07171992
Si       4.88110807       2.72525696       3.07171992
16
Lattice="7.82316894533883 1.4769659775577934e-31 2.1810240878099657e-31 -1.4600037308385053e-31 7.847484896474856 1.263439141305188e-13 -1.391929385709725e-31 -7.898400890809148e-14 4.909530496855203" Properties=species:S:1:pos:R:3 unique_starting_index=112 config_type=initial n_minim_iter=9 stress="0.0005862583530873135 2.3058518638982007e-16 2.891523503450619e-17 2.3058518638982007e-16 0.0006816145259992823 -2.190743444174848e-16 2.891523503450619e-17 -2.190743444174848e-16 -0.001510212790099441" pbc="T T T"
Si       0.00235441       5.62211424      -0.08454908
Si       7.82081453       2.22537066      -0.08454908
Si       2.19728920      -0.00924639       4.99867508
Si       5.62587975       7.85673129       4.99867508
Si       3.91393888       6.14911311       4.99407958
Si       3.90923006       1.69837179       4.99407958
Si       6.10887367       3.93298884      -0.08914458
Si       1.71429527       3.91449605      -0.08914458
Si       6.64310375       1.02706271       3.04100522
Si       1.18006519       6.82042219       3.04100522
Si       6.80797420       6.65681978       1.86553688
Si       1.01519475       1.19066511       1.86553688
Si       2.73151928       2.89667974       1.86852528
Si       5.09164967       4.95080516       1.86852528
Si       2.89638972       5.11440756       3.04399362
Si       4.92677922       2.73307733       3.04399362
16
Lattice="7.819860590311627 1.4764022714966148e-31 2.187099575137169e-31 -1.457002999044483e-31 7.8318656798685335 1.2611245281853787e-13 -1.3919974375022109e-31 -7.92333680712575e-14 4.925817561993595" Properties=species:S:1:pos:R:3 unique_starting_index=112 config_type=initial n_minim_iter=10 stress="0.00017981193280034943 2.458352343552253e-16 8.13317167552467e-17 2.458352343552253e-16 6.819587790222458e-05 -1.5217495420042766e-16 8.13317167552467e-17 -1.5217495420042766e-16 -0.00019066993819305149" pbc="T T T"
Si       0.00286594       5.61425398      -0.07990209
Si       7.81699465       2.21761170      -0.07990209
Si       2.19934211      -0.00555408       5.00957121
Si       5.62051848       7.83741976       5.00957121
Si       3.91279624       6.13354454       5.00571965
Si       3.90706436       1.69832114       5.00571965
Si       6.10927240       3.92148692      -0.08375365
Si       1.71058819       3.91037876      -0.08375365
Si       6.64070558       1.02504935       3.05332600
Si       1.17915501       6.80681633       3.05332600
Si       6.80311920       6.64430861       1.87164884
Si       1.01674139       1.18755707       1.87164884
Si       2.73077529       2.89088349       1.87249156
Si       5.08908530       4.94098219       1.87249156
Si       2.89318890       5.10348991       3.05416872
Si       4.92667169       2.72837577       3.05416872
16
Lattice="7.818424467140322 1.47601363267986e-31 2.195451334742685e-31 -1.4531924667307165e-31 7.811039112929829 1.2589051011454367e-13 -1.391988446567126e-31 -7.948211820793625e-14 4.945816361721522" Properties=species:S:1:pos:R:3 unique_starting_index=112 config_type=initial n_minim_iter=11 stress="-0.0005535830685157783 2.168683609396063e-16 8.766627810863745e-17 2.168683609396063e-16 -0.0005720948277590684 -2.8027478850245726e-16 8.766627810863745e-17 -2.8027478850245726e-16 0.0012557322261908409" pbc="T T T"
Si      -0.00112329       5.60848097      -0.06917418
Si       7.81954776       2.20255814      -0.06917418
Si       2.20853853       0.00108373       5.01759029
Si       5.60988594       7.80995538       5.01759029
Si       3.90808894       6.10807770       5.01499055
Si       3.91033552       1.70296142       5.01499055
Si       6.11775076       3.90443582      -0.07177393
Si       1.70067371       3.90660329      -0.07177393
Si       6.64428202       1.02322906       3.06946686
Si       1.17414245       6.78781005       3.06946686
Si       6.79334300       6.63407509       1.88214242
Si       1.02508146       1.17696402       1.88214242
Si       2.73506978       2.88229049       1.87634950
Si       5.08335469       4.92874862       1.87634950
Si       2.88413077       5.08248358       3.06367394
Si       4.93429370       2.72855554       3.06367394
16
Lattice="7.831131996704889 1.4781232162332667e-31 2.200878389893176e-31 -1.4528121659077857e-31 7.807674077334446 1.2584293044815724e-13 -1.3891313864344065e-31 -7.938528135854388e-14 4.940068552266949" Properties=species:S:1:pos:R:3 unique_starting_index=112 config_type=initial n_minim_iter=12 stress="0.00022743668420087233 2.1245104543948303e-16 2.7328261640874677e-16 2.1245104543948303e-16 0.00012043268113621216 -1.8286227527014328e-16 2.7328261640874677e-16 -1.8286227527014328e-16 1.5834588698576898e-06" pbc="T T T"
Si      -0.00997974       5.61412864      -0.06313278
Si       7.84111174       2.19354543      -0.06313278
Si       2.21701442       0.00081138       5.00554551
Si       5.61411758       7.80686269       5.00554551
Si       3.90558626       6.09738247       5.00320133
Si       3.92554574       1.71029161       5.00320133
Si       6.13258042       3.90302566      -0.06547696
Si       1.69855158       3.90464842      -0.06547696
Si       6.66285617       1.02333575       3.06692253
Si       1.16827582       6.78433832       3.06692253
Si       6.79610309       6.64316064       1.88323771
Si       1.03502891       1.16451344       1.88323771
Si       2.74729018       2.88050129       1.87314602
Si       5.08384182       4.92717279       1.87314602
Si       2.88053709       5.06835048       3.05683084
Si       4.95059491       2.73932360       3.05683084
16
Lattice="7.825324557100405 1.4767641736577467e-31 2.202687327080284e-31 -1.4535486956256157e-31 7.810100262689904 1.2581007781126827e-13 -1.3867069679964051e-31 -7.942029196139983e-14 4.939351679187381" Properties=species:S:1:pos:R:3 unique_starting_index=112 config_type=initial n_minim_iter=13 stress="-0.00044926655763348564 1.8535821955035448e-16 2.2029677283861575e-16 1.8535821955035448e-16 7.699170142193549e-06 -1.47017754494552e-16 2.2029677283861575e-16 -1.47017754494552e-16 -0.0008152611293335576" pbc="T T T"
Si      -0.01013221       5.62043570      -0.06161409
Si       7.83545677       2.18966457      -0.06161409
Si       2.21674450       0.00425538       5.00323890
Si       5.60858006       7.80584488       5.00323890
Si       3.90253007       6.09471470       5.00096577
Si       3.92279449       1.71538557       5.00096577
Si       6.12940678       3.90079475      -0.06388722
Si       1.69591778       3.90930552      -0.06388722
Si       6.66249095       1.02796166       3.06787567
Si       1.16283361       6.78213860       3.06787567
Si       6.78359707       6.65151042       1.88254438
Si       1.04172749       1.15858984       1.88254438
Si       2.74982867       2.87708847       1.87147601
Si       5.07549588       4.93301179       1.87147601
Si       2.87093479       5.06363997       3.05680730
Si       4.95438977       2.74646029       3.05680730
16
Lattice="7.826031745032676 1.4767108520784223e-31 2.2074953820127932e-31 -1.4517269301493541e-31 7.7994659786336955 1.2566834291759507e-13 -1.3866989942263475e-31 -7.957019229499926e-14 4.9498313311421525" Properties=species:S:1:pos:R:3 unique_starting_index=112 config_type=initial n_minim_iter=14 stress="-0.00020100846448728416 2.6530812713173134e-16 1.1611823846762758e-16 2.6530812713173134e-16 6.1578298512104925e-06 -6.559210622301115e-17 1.1611823846762758e-16 -6.559210622301115e-17 -0.00035779527297341124" pbc="T T T"
Si      -0.01116272       5.61659011      -0.05928595
Si       7.83719447       2.18287586      -0.05928595
Si       2.21672691       0.00529501       5.01086922
Si       5.60930483       7.79417097       5.01086922
Si       3.90185315       6.08260885       5.00911729
Si       3.92417860       1.71685712       5.00911729
Si       6.12974279       3.89443798      -0.06103789
Si       1.69628896       3.90502800      -0.06103789
Si       6.66604842       1.02906816       3.07613724
Si       1.15998333       6.77039782       3.07613724
Si       6.77946467       6.64680012       1.88527200
Si       1.04656707       1.15266585       1.88527200
Si       2.75303255       2.87066483       1.87369409
Si       5.07299920       4.92880115       1.87369409
Si       2.86644880       5.05239884       3.06455934
Si       4.95958295       2.74706713       3.06455934
16
Lattice="7.82678673432755 1.4766711137475267e-31 2.2115356564641384e-31 -1.450311863626371e-31 7.791010541918168 1.254897715769979e-13 -1.3866677195037424e-31 -7.973652829731384e-14 4.958442773889193" Properties=species:S:1:pos:R:3 unique_starting_index=112 config_type=initial n_minim_iter=15 stress="1.3905302521824648e-05 1.277811746610558e-16 7.417183126877376e-17 1.277811746610558e-16 -3.455726466630694e-05 -2.1351940536035615e-16 7.417183126877376e-17 -2.1351940536035615e-16 4.198997312210469e-05" pbc="T T T"
Si      -0.01168356       5.61255206      -0.05735321
Si       7.83847029       2.17845848      -0.05735321
Si       2.21665237       0.00560723       5.01703255
Si       5.61013437       7.78540331       5.01703255
Si       3.90170981       6.07396376       5.01579599
Si       3.92507692       1.71704679       5.01579599
Si       6.13004574       3.88989804      -0.05858978
Si       1.69674100       3.90111250      -0.05858978
Si       6.66893211       1.02963939       3.08270496
Si       1.15785463       6.76137116       3.08270496
Si       6.77736395       6.64259494       1.88728808
Si       1.04942279       1.14841560       1.88728808
Si       2.75553874       2.86586589       1.87573781
Si       5.07124799       4.92514466       1.87573781
Si       2.86397058       5.04392087       3.07115470
Si       4.96281615       2.74708967       3.07115470
16
Lattice="7.825972033518781 1.4762787094928018e-31 2.2178127701377862e-31 -1.4481119806287724e-31 7.778073297337226 1.252268239052479e-13 -1.3873418798162342e-31 -8.004837457338345e-14 4.97559665920649" Properties=species:S:1:pos:R:3 unique_starting_index=112 config_type=initial n_minim_iter=16 stress="0.00037323269998784095 3.4457407012101447e-16 1.0630476631392999e-16 3.4457407012101447e-16 -5.093606662058394e-05 -2.56964279951948e-16 1.0630476631392999e-16 -2.56964279951948e-16 0.0008334069484472971" pbc="T T T"
Si      -0.01170459       5.60544579      -0.05286385
Si       7.83767662       2.17262751      -0.05286385
Si       2.21548481       0.00532931       5.02820140
Si       5.61048722       7.77274399       5.02820140
Si       3.90128143       6.06166416       5.02846050
Si       3.92469060       1.71640914       5.02846050
Si       6.12847083       3.88370734      -0.05260474
Si       1.69750120       3.89436596      -0.05260474
Si       6.67405866       1.03260992       3.09572601
Si       1.15191337       6.74546338       3.09572601
Si       6.77137043       6.63835421       1.88983817
Si       1.05460160       1.13971908       1.88983817
Si       2.76107265       2.85642673       1.87987065
Si       5.06489939       4.92164657       1.87987065
Si       2.85838441       5.02875573       3.08575849
Si       4.96758762       2.74931757       3.08575849
16
Lattice="7.8284325800602135 1.4764537291897074e-31 2.2181678433592665e-31 -1.4530682714807386e-31 7.802845088680415 1.256819786183413e-13 -1.3842272786264844e-31 -7.98241346826029e-14 4.963947772596482" Properties=species:S:1:pos:R:3 unique_starting_index=112 config_type=initial n_minim_iter=17 stress="-4.289518405422146e-05 1.7501816348639978e-16 1.21377659405317e-16 1.7501816348639978e-16 3.559899110875093e-05 -1.3584045743400485e-16 1.21377659405317e-16 -1.3584045743400485e-16 7.786341773229789e-05" pbc="T T T"
Si      -0.00743599       5.61212007      -0.04199119
Si       7.83586857       2.19072502      -0.04199119
Si       2.22036893       0.00044895       5.00120721
Si       5.60806365       7.80239613       5.00120721
Si       3.90678030       6.09214756       5.00593896
Si       3.92165228       1.71069752       5.00593896
Si       6.13458522       3.90097359      -0.03725944
Si       1.69384736       3.90187150      -0.03725944
Si       6.69317502       1.05410380       3.08872075
Si       1.13525756       6.74874129       3.08872075
Si       6.76262760       6.67475264       1.87596454
Si       1.06580498       1.12809245       1.87596454
Si       2.77895873       2.84731874       1.87522702
Si       5.04947385       4.95552635       1.87522702
Si       2.84841131       5.02951499       3.08798324
Si       4.98002127       2.77333009       3.08798324
16
Lattice="7.828711834380906 1.4761941935046455e-31 2.2218638554589187e-31 -1.4520823512484359e-31 7.795963703617085 1.2558935772989988e-13 -1.3835249546017919e-31 -7.990512694095652e-14 4.969703089076468" Properties=species:S:1:pos:R:3 unique_starting_index=112 config_type=initial n_minim_iter=18 stress="-1.4386421620567328e-05 3.960471858234083e-16 1.3836029227472119e-16 3.960471858234083e-16 -6.473430301293376e-05 -1.5501477190038208e-16 1.3836029227472119e-16 -1.5501477190038208e-16 -0.00024922150391717653" pbc="T T T"
Si      -0.00650655       5.61016707      -0.03290962
Si       7.83521838       2.18579664      -0.03290962
Si       2.21924234       0.00174586       4.99648411
Si       5.60946949       7.79421784       4.99648411
Si       3.90784937       6.08377849       5.00261271
Si       3.92086247       1.71218521       5.00261271
Si       6.13359826       3.89623599      -0.02678102
Si       1.69511357       3.89972771      -0.02678102
Si       6.69791639       1.05881216       3.09346559
Si       1.13079544       6.73715154       3.09346559
Si       6.75640786       6.67475772       1.87589395
Si       1.07230398       1.12120599       1.87589395
Si       2.78356047       2.83916969       1.87623750
Si       5.04515136       4.95679401       1.87623750
Si       2.84205194       5.01918784       3.09380914
Si       4.98665990       2.77677586       3.09380914
16
Lattice="7.84270755350949 1.4784567943194617e-31 2.2257774959202117e-31 -1.452864194302998e-31 7.798281143866059 1.2553117241686352e-13 -1.3810576898976017e-31 -7.982981234828447e-14 4.961187981050961" Properties=species:S:1:pos:R:3 unique_starting_index=112 config_type=initial n_minim_iter=19 stress="0.000850920596530822 2.488104119898718e-16 8.50712070406547e-17 2.488104119898718e-16 0.00025191161752228874 -2.1002525953262708e-16 8.50712070406547e-17 -2.1002525953262708e-16 0.00016194819067785735" pbc="T T T"
Si      -0.00358885       5.60898965      -0.01275856
Si       7.84629641       2.18929149      -0.01275856
Si       2.22325771       0.00249552       4.96622734
Si       5.61944984       7.79578563       4.96622734
Si       3.91776492       6.08843206       4.97394654
Si       3.92494263       1.70984908       4.97394654
Si       6.14461149       3.89664505      -0.00503936
Si       1.69809606       3.90163609      -0.00503936
Si       6.72919755       1.08242748       3.08074502
Si       1.11351001       6.71585366       3.08074502
Si       6.74589103       6.69988233       1.87383434
Si       1.09681652       1.09839882       1.87383434
Si       2.80784377       2.81671309       1.88044297
Si       5.03486378       4.98156806       1.88044297
Si       2.82453725       4.99753939       3.08735364
Si       5.01817030       2.80074175       3.08735364
16
Lattice="7.827418585026749 1.4754252935679968e-31 2.222663874784817e-31 -1.4544004033709839e-31 7.805458513821187 1.2558802971883272e-13 -1.379910592536144e-31 -7.984365098630206e-14 4.959688362811635" Properties=species:S:1:pos:R:3 unique_starting_index=112 config_type=initial n_minim_iter=20 stress="4.2009416290212646e-05 3.0116928616482595e-16 1.286014835083381e-16 3.0116928616482595e-16 -0.00024019072659095295 -2.0389380504954458e-16 1.286014835083381e-16 -2.0389380504954458e-16 -0.00021732348512446982" pbc="T T T"
Si      -0.00103051       5.61062492      -0.01124260
Si       7.82844909       2.19483360      -0.01124260
Si       2.21319603       0.00020521       4.96370949
Si       5.61422255       7.80525331       4.96370949
Si       3.91267878       6.09756285       4.97093097
Si       3.91473980       1.70789566       4.97093097
Si       6.12690532       3.90252405      -0.00402113
Si       1.70051326       3.90293447      -0.00402113
Si       6.71680841       1.08598303       3.07566706
Si       1.11061017       6.71947549       3.07566706
Si       6.73369943       6.70652931       1.87402325
Si       1.09371916       1.09892921       1.87402325
Si       2.80309912       2.81674623       1.88402131
Si       5.02431946       4.98871228       1.88402131
Si       2.81999013       5.00165846       3.08566511
Si       5.00742845       2.80380005       3.08566511
16
Lattice="7.820684305425015 1.4740472830033587e-31 2.222429081099931e-31 -1.4556318142005753e-31 7.811337182640766 1.257119195738377e-13 -1.3790925934739872e-31 -7.983788084378211e-14 4.96050713859978" Properties=species:S:1:pos:R:3 unique_starting_index=112 config_type=initial n_minim_iter=21 stress="-5.744146214273177e-05 3.2533214492159587e-16 1.1045905596155536e-16 3.2533214492159587e-16 -3.0307374715101172e-05 -1.7493930090097075e-16 1.1045905596155536e-16 -1.7493930090097075e-16 -1.4773468788439639e-05" pbc="T T T"
Si      -0.00003272       5.61383318      -0.00994607
Si       7.82071703       2.19750401      -0.00994607
Si       2.20977166      -0.00030139       4.96308960
Si       5.61091265       7.81163857       4.96308960
Si       3.91030943       6.10317260       4.97045321
Si       3.91037488       1.70816459       4.97045321
Si       6.12011381       3.90596998      -0.00258247
Si       1.70057050       3.90536720      -0.00258247
Si       6.71190653       1.08843898       3.07517146
Si       1.10877778       6.72289820       3.07517146
Si       6.72775834       6.71204831       1.87482181
Si       1.09292597       1.09928888       1.87482181
Si       2.80156438       2.81722961       1.88533568
Si       5.01911993       4.99410757       1.88533568
Si       2.81741619       5.00495747       3.08568533
Si       5.00326812       2.80637971       3.08568533
