8
Lattice="4.067769999999998 -3.1832499048738105e-16 2.522033583752536e-32 -1.1899326483098267 4.567564897501333 -3.618802296932526e-16 -5.840101292960341e-47 6.601591957978934e-16 8.33237" Properties=species:S:1:pos:R:3 unique_starting_index=176 config_type=initial n_minim_iter=1 pbc="T T T"
Si       2.65862215       0.49970759       7.07666101
Si       0.21921521       4.06785731       7.07666101
Si       2.29544757       4.01496491       5.89171551
Si       0.58238979       0.55259999       5.89171551
Si      -0.00351236       1.24307421       7.25452795
Si       2.88134972       3.32449069       7.25452795
Si      -0.47844119       3.07536200       5.82525236
Si       3.35627855       1.49220290       5.82525236
8
Lattice="4.189508198332985 -0.006027879485421182 4.775784168804637e-19 -1.2323128683042748 4.719504090635378 -3.7391810793792397e-16 3.4614459801630947e-34 6.674909018534907e-16 8.42490902388293" Properties=species:S:1:pos:R:3 unique_starting_index=176 config_type=initial n_minim_iter=2 pbc="T T T"
Si       2.73765693       0.51205917       7.15418116
Si       0.21953841       4.20141704       7.15418116
Si       2.35320344       4.14436189       5.95553363
Si       0.60399189       0.56911432       5.95553363
Si      -0.00286366       1.28636678       7.34001775
Si       2.96005900       3.42710943       7.34001775
Si      -0.49386866       3.17678147       5.88771426
Si       3.45106399       1.53669474       5.88771426
8
Lattice="4.435438204519874 -0.009647987089296175 7.643932516124729e-19 -1.3083189404217872 5.026195496073989 -3.982167350479155e-16 -1.667927067211347e-33 6.776494927045797e-16 8.553128305214887" Properties=species:S:1:pos:R:3 unique_starting_index=176 config_type=initial n_minim_iter=3 pbc="T T T"
Si       2.89843973       0.54327295       7.26218093
Si       0.22867954       4.47327456       7.26218093
Si       2.48141556       4.41092726       6.04652798
Si       0.64570371       0.60562025       6.04652798
Si       0.00392407       1.37223278       7.45787414
Si       3.12319521       3.64431474       7.45787414
Si      -0.51932899       3.38165565       5.97169519
Si       3.64644826       1.63489186       5.97169519
8
Lattice="4.588121301558767 -0.08161120046258075 6.4659135954689906e-18 -1.4337879933246915 5.285764841221731 -4.1878196320587285e-16 -6.389001833285471e-33 6.840182151078838e-16 8.633512781912938" Properties=species:S:1:pos:R:3 unique_starting_index=176 config_type=initial n_minim_iter=4 pbc="T T T"
Si       2.98438523       0.51940478       7.33450283
Si       0.16994809       4.68474886       7.33450283
Si       2.50140777       4.57946816       6.10160609
Si       0.65292554       0.62468549       6.10160609
Si      -0.01819887       1.43687150       7.52786630
Si       3.17253219       3.76728214       7.52786630
Si      -0.59641039       3.54405504       6.02559617
Si       3.75074371       1.66009860       6.02559617
8
Lattice="17.207677011467805 -4.265046777077742 3.3791224470301225e-16 -9.822791018837716 18.53123051248874 -1.4681971914677286e-15 -4.579514289530327e-31 1.1266568130617804e-15 14.220390307682134" Properties=species:S:1:pos:R:3 unique_starting_index=176 config_type=initial n_minim_iter=5 pbc="T T T"
Si      10.05274215      -0.94976183      12.24582964
Si      -2.66785613      15.21594556      12.24582964
Si       5.39831662      12.76559931       9.90765266
Si       1.98656941       1.50058442       9.90765266
Si      -1.04544087       4.76899227      12.55635665
Si       8.43032689       9.49719147      12.55635665
Si      -5.07353557      11.61360813       9.74509488
Si      12.45842159       2.65257560       9.74509488
