24
Lattice="8.675792325542673 1.5374085623711435 -1.226557199216957 -3.0064612917622107 6.47523126838051 0.5576016968945292 -1.2755849509386037 -0.06685994529892599 8.876038361550968" Properties=species:S:1:pos:R:3 unique_starting_index=90 config_type=initial n_minim_iter=1 energy=-3895.7485684291414 free_energy=-3895.7485684291414 pbc="T T T"
Si       5.60240589       1.22107566       5.72868758
Si       0.98533798       2.74847331       0.39637343
Si       5.62911131       5.97007197       1.05766654
Si       1.11189982       0.52542612       1.99832386
Si       3.94291233       3.28435395       7.64052260
Si      -2.49128063       4.52512025       7.39784132
Si       0.58832168       2.54293220       3.22175734
Si       2.13487498       4.84874812       6.92940944
Si      -2.21018376       6.74097206       6.96145307
Si       4.97706273       3.19906130       4.78284325
Si       1.38751907       4.87895676       1.45195140
Si       3.72784824       7.52293603       1.59309655
Si       4.75196353       7.72094736      -0.43047003
Si       6.51412477       3.49684599       6.60450926
Si      -0.89829722       4.42526263       1.10435185
Si      -3.01661366       6.62508964       9.07644655
Si      -1.10678488       1.85618732       1.56164776
Si       4.32160413       5.48671373       7.30132328
Si       2.49758958       1.59650659       7.19879244
Si      -0.81916690       3.19340465       5.15570128
Si       0.72857113       5.63586940       5.21708021
Si       4.32673976       1.49221021       0.64535496
Si       5.73931589       4.33077053       2.90637383
Si       2.14617682       6.12043262       3.38343566
24
Lattice="8.558976252111764 1.1930626522386065 -0.7590173373187834 -3.1506271736220777 6.457222908605139 0.834291543321607 -0.9145477493985389 0.5279531389371975 8.651687623666142" Properties=species:S:1:pos:R:3 unique_starting_index=90 config_type=initial n_minim_iter=2 stress="-0.005774102116612383 -0.0008190942769884087 0.0030785403610883084 -0.0008190942769884087 -0.010611664645323201 0.005428767176349735 0.0030785403610883084 0.005428767176349735 -0.010156353527891942" pbc="T T T"
Si       5.72328796       1.29593096       5.88043783
Si       0.98672644       2.66924972       0.58943391
Si       5.48625231       5.72700242       1.69787995
Si       1.17742696       0.58851055       2.07507821
Si       4.21665049       3.49422348       7.86354321
Si      -2.13086479       4.86760022       7.45665528
Si       0.66351176       2.72041644       3.25253679
Si       2.21369600       5.05118257       7.20884928
Si      -2.20570794       7.23672923       6.97067184
Si       4.95631801       3.38808953       5.15181449
Si       1.33898107       4.83207351       1.80703034
Si       3.57761522       7.42451747       2.26948195
Si       4.46955069       7.40546317       0.16577617
Si       6.69498210       3.68356548       6.94375077
Si      -0.98316513       4.44411735       1.30970945
Si      -2.76847633       7.22190507       9.22690227
Si      -1.15609071       1.93076662       1.69373291
Si       4.34424496       5.81846853       7.67997999
Si       2.76632351       1.93321916       7.26030929
Si      -0.61698001       3.52576925       5.26618616
Si       0.70861648       5.77748917       5.53721501
Si       4.24131881       1.31319384       0.94665588
Si       5.81022524       4.25229958       3.29269811
Si       2.15398855       6.16318922       3.77491914
24
Lattice="8.617489115537293 1.1412897400204352 -0.6999470338149476 -3.2164998789495716 6.557552603673992 0.8840000758664345 -0.8662136306610742 0.6226280729812326 8.742802122632428" Properties=species:S:1:pos:R:3 unique_starting_index=90 config_type=initial n_minim_iter=3 stress="0.012080076152995249 -1.6840423931986573e-05 0.0025084626977225247 -1.6840423931986573e-05 0.00638631362129032 0.005220486829310704 0.0025084626977225247 0.005220486829310704 0.008579436247220244" pbc="T T T"
Si       5.78483880       1.29444886       5.97917609
Si       1.00116773       2.69327601       0.62233617
Si       5.50016360       5.76205743       1.82184387
Si       1.19926724       0.60146051       2.12422990
Si       4.30402234       3.55358267       8.01037856
Si      -2.07717932       4.98111137       7.57318784
Si       0.67752468       2.78869153       3.29108215
Si       2.22712646       5.13643739       7.35309994
Si      -2.25564100       7.43966123       7.04099073
Si       4.97523266       3.46780272       5.29256524
Si       1.33834170       4.89296427       1.88700797
Si       3.57199384       7.51996887       2.41364530
Si       4.44187036       7.45676122       0.23976484
Si       6.78268218       3.75089710       7.08988787
Si      -1.01509233       4.51773444       1.35510122
Si      -2.76110753       7.43401954       9.38347786
Si      -1.18614888       1.97433536       1.75071426
Si       4.35996105       5.95793625       7.84505319
Si       2.83333545       1.99769177       7.37063036
Si      -0.58707973       3.63390518       5.36270940
Si       0.68876671       5.87468527       5.66701561
Si       4.25623993       1.28677731       1.01109199
Si       5.88364405       4.28360067       3.38962532
Si       2.16900023       6.25582477       3.88096500
24
Lattice="8.40774395862039 1.057988721806462 -0.6772108473791665 -3.209353956339123 6.568102152493755 0.8630800841165263 -0.8233411019778385 0.6198680101827027 8.655391018497268" Properties=species:S:1:pos:R:3 unique_starting_index=90 config_type=initial n_minim_iter=4 stress="0.00026399237965785453 -0.0042020906689443725 -0.0009190128487183938 -0.0042020906689443725 -0.006160914506922809 0.004381309548309807 -0.0009190128487183938 0.004381309548309807 0.0008895688298818691" pbc="T T T"
Si       5.63220791       1.17909260       5.90983585
Si       0.98503105       2.67127177       0.60627445
Si       5.31141165       5.68683851       1.82891213
Si       1.17596089       0.58014873       2.12975278
Si       4.23146712       3.46130906       7.94396518
Si      -1.97678807       4.94588959       7.50016076
Si       0.65081069       2.78687026       3.21921499
Si       2.11660360       5.05306665       7.28705997
Si      -2.30014683       7.49686627       6.87532203
Si       4.79077902       3.44501544       5.28550055
Si       1.27695074       4.86210287       1.87624561
Si       3.42148255       7.48345071       2.42887659
Si       4.23884871       7.38811832       0.19662716
Si       6.62661372       3.67657679       7.01808792
Si      -1.03481574       4.52249498       1.32917441
Si      -2.71765666       7.46931160       9.29013621
Si      -1.19959770       1.98082263       1.77444184
Si       4.17495171       5.93909537       7.77123861
Si       2.77990782       1.94179092       7.29344561
Si      -0.56007068       3.64393046       5.31975332
Si       0.59492241       5.82366837       5.62652192
Si       4.12211754       1.20900335       1.03054111
Si       5.77314642       4.19438606       3.34452019
Si       2.08719138       6.21592998       3.82784499
24
Lattice="8.208749839820488 1.244164691275646 -0.5345597343982389 -3.030819509300505 6.661298646698429 0.7072502512018135 -0.656967484967885 0.4682452434641533 8.413049177746613" Properties=species:S:1:pos:R:3 unique_starting_index=90 config_type=initial n_minim_iter=5 stress="-0.0007781962215129727 -0.0016992569663396007 0.0005436423050591596 -0.0016992569663396007 -0.003081554143282247 0.0001286053001528078 0.0005436423050591596 0.0001286053001528078 -0.00920114677111082" pbc="T T T"
Si       5.57098794       1.15039930       5.81017049
Si       1.04259089       2.74558439       0.56044005
Si       5.26919361       5.89584093       1.81232791
Si       1.19537339       0.57228996       2.11931372
Si       4.34324886       3.46274406       7.78374272
Si      -1.66644032       4.88648472       7.22912675
Si       0.73235531       2.82750352       3.07688136
Si       2.20991717       5.03363902       7.07705457
Si      -2.07423503       7.59296593       6.48583281
Si       4.75204773       3.55854377       5.22958286
Si       1.35786666       4.96979382       1.79918553
Si       3.48341300       7.70109477       2.36543948
Si       4.20654117       7.63626435       0.13000837
Si       6.64212772       3.76595010       6.88482276
Si      -0.92561460       4.60829704       1.21422635
Si      -2.37203555       7.48991962       8.91992681
Si      -1.14213640       1.99226376       1.73332134
Si       4.23291539       6.07075306       7.56498927
Si       2.85338342       1.88343959       7.10918439
Si      -0.37886331       3.64895264       5.14111626
Si       0.71091372       5.85976206       5.44052790
Si       4.02491782       1.25493128       1.08169890
Si       5.81387253       4.31050148       3.29392782
Si       2.19786182       6.33889667       3.67271880
24
Lattice="7.8933347184228495 1.3836755559843759 -0.45349466053457665 -2.817494651015035 6.661176034396871 0.6695212106191589 -0.5084944034810377 0.4347320330995864 8.51418618599975" Properties=species:S:1:pos:R:3 unique_starting_index=90 config_type=initial n_minim_iter=6 stress="-0.008353504626177503 -0.0017168049661886167 0.0015319484520612693 -0.0017168049661886167 -0.006166628550621025 -0.001249476356756602 0.0015319484520612693 -0.001249476356756602 -0.004783942213984503" pbc="T T T"
Si       5.40047626       1.17371585       5.90761139
Si       1.07994887       2.78514720       0.55355532
Si       5.13490366       6.02509660       1.89701276
Si       1.19607355       0.58341210       2.20102040
Si       4.36005681       3.52215115       7.94861861
Si      -1.36605549       4.86785957       7.30920201
Si       0.79540531       2.86739400       3.08232937
Si       2.24396626       5.01821766       7.18884157
Si      -1.84146405       7.66685446       6.44625713
Si       4.62925984       3.67328994       5.39017252
Si       1.41038255       5.01604526       1.83638201
Si       3.48805657       7.82034234       2.45378967
Si       4.10369630       7.75439565       0.12384751
Si       6.54008097       3.87801246       7.01879221
Si      -0.80550406       4.64533986       1.20173967
Si      -2.02821249       7.52486265       8.99107174
Si      -1.07797264       2.00119418       1.79285857
Si       4.20749916       6.19728906       7.69045730
Si       2.85961355       1.88751795       7.20192417
Si      -0.21352467       3.67096680       5.21066966
Si       0.79207647       5.87830863       5.52898052
Si       3.86410357       1.28182352       1.16506219
Si       5.76099793       4.38653286       3.38559637
Si       2.25576352       6.40145875       3.71642111
24
Lattice="7.8340937398816735 1.5387907031229084 -0.5145811888740929 -2.681846336005748 6.674328928255173 0.709166955666853 -0.5692869758706591 0.43725979286631333 8.476253120141596" Properties=species:S:1:pos:R:3 unique_starting_index=90 config_type=initial n_minim_iter=7 stress="-0.002976734711114518 0.0020805597396928756 -0.0026454682496114632 0.0020805597396928756 -0.00073169452409431 -0.003246603105017223 -0.0026454682496114632 -0.003246603105017223 -0.0019116105371338836" pbc="T T T"
Si       5.26368791       1.24927929       5.79776872
Si       1.13660677       2.84656601       0.52391146
Si       5.13035219       6.18582293       1.87332820
Si       1.18972610       0.61098975       2.22151730
Si       4.32130064       3.65156883       7.91170920
Si      -1.28528638       4.91222568       7.31081123
Si       0.82610217       2.92509886       3.04686804
Si       2.20981755       5.04859163       7.15279601
Si      -1.76636226       7.76501150       6.39832486
Si       4.55407855       3.80834633       5.37400523
Si       1.48352250       5.08413801       1.83799342
Si       3.57596572       7.97278451       2.45444708
Si       4.15008794       7.90864542       0.08949520
Si       6.49332276       4.03588625       6.91205683
Si      -0.71423305       4.70234146       1.20290119
Si      -1.93556113       7.59711534       8.96982976
Si      -1.07397933       2.02297819       1.84135845
Si       4.17478164       6.34844975       7.62080768
Si       2.79449203       1.93156160       7.11494527
Si      -0.17133853       3.71183055       5.20565764
Si       0.79781298       5.94829408       5.52949347
Si       3.80418822       1.33007708       1.14962844
Si       5.80811045       4.50147132       3.33576849
Si       2.30699117       6.48712679       3.68270757
24
Lattice="7.713684674735885 1.546212289459659 -0.34690679216523873 -2.627005021910321 6.75916113355683 0.7928617081296812 -0.4184719811721088 0.6145669497159545 8.42705276700396" Properties=species:S:1:pos:R:3 unique_starting_index=90 config_type=initial n_minim_iter=8 stress="7.97277116426104e-05 0.0024405000981795803 0.001633985734661725 0.0024405000981795803 0.00474243214041643 -0.003129670462312567 0.001633985734661725 -0.003129670462312567 0.00102411671482146" pbc="T T T"
Si       5.20516848       1.32497045       5.81244472
Si       1.16867059       2.91990377       0.55069918
Si       5.04163407       6.30419116       2.08883182
Si       1.24105711       0.66449743       2.30594295
Si       4.41635026       3.87985147       8.07110227
Si      -1.07466049       5.14649969       7.36605076
Si       0.90158113       3.03880667       3.07777726
Si       2.26272063       5.14087545       7.26386005
Si      -1.65061320       8.05669117       6.41885329
Si       4.52492960       3.96778853       5.55385649
Si       1.53559594       5.16356778       1.96946553
Si       3.60098488       8.12933274       2.69274072
Si       4.03915262       8.01651386       0.29800185
Si       6.55745793       4.21544671       7.02076369
Si      -0.65687388       4.82527439       1.26386842
Si      -1.72566251       7.89843932       9.01007666
Si      -1.06261599       2.11285458       1.91047133
Si       4.21644889       6.56765602       7.75159406
Si       2.87316410       2.04649230       7.10811777
Si      -0.04200281       3.85760442       5.26250688
Si       0.82242949       6.12813253       5.65106800
Si       3.72431187       1.31428036       1.26061389
Si       5.88132452       4.56734323       3.52533189
Si       2.33588991       6.59469432       3.81007770
24
Lattice="7.715504944616735 1.4446287718299828 -0.4116208669624957 -2.6717421052502273 6.7491601111143815 1.0340479462528478 -0.5255610860017809 0.8988968724984988 8.490631599618396" Properties=species:S:1:pos:R:3 unique_starting_index=90 config_type=initial n_minim_iter=9 stress="0.0038291762100901737 0.0024148675804431803 -0.0037518369584233118 0.0024148675804431803 0.008267772639223571 0.00032293753687999085 -0.0037518369584233118 0.00032293753687999085 0.010621621301048241" pbc="T T T"
Si       5.04205339       1.43685925       5.73303673
Si       1.17063693       2.95070839       0.55046032
Si       4.92377910       6.28316990       2.21023946
Si       1.25286642       0.74109392       2.38691704
Si       4.29231121       4.15942766       8.25200010
Si      -1.17664412       5.43980040       7.58360235
Si       0.89886923       3.11033795       3.17726005
Si       2.12775466       5.20362853       7.43196493
Si      -1.76053255       8.26429074       6.70659049
Si       4.40425825       4.03825234       5.67499279
Si       1.53720060       5.15206305       2.12300867
Si       3.57476194       8.12112676       2.90273612
Si       3.93577924       7.94468291       0.49470994
Si       6.51075108       4.34041246       7.02760586
Si      -0.66120287       4.90080065       1.41857521
Si      -1.87494804       8.15243015       9.26104007
Si      -1.11931553       2.20267375       2.02119876
Si       4.09243328       6.67076156       7.89273521
Si       2.77792675       2.18032646       7.08760819
Si      -0.10456603       3.96882532       5.40543616
Si       0.66415330       6.29391411       5.86581181
Si       3.66352378       1.26911124       1.26401685
Si       5.90271490       4.55085550       3.65721475
Si       2.22975650       6.57193499       3.96875882
24
Lattice="7.840458326697827 1.3054795815356603 -0.2777180903029155 -2.795321458847479 6.665153292358632 1.0346387617437123 -0.43954677801248404 0.9769453151200308 8.350233403062989" Properties=species:S:1:pos:R:3 unique_starting_index=90 config_type=initial n_minim_iter=10 stress="0.005046637361037064 0.00047385186453692167 0.002909465304745305 0.00047385186453692167 -0.00404063307008552 0.0006711159186224449 0.002909465304745305 0.0006711159186224449 0.0019647296905504204" pbc="T T T"
Si       5.14175466       1.39036734       5.68796834
Si       1.17294044       2.90978570       0.53469576
Si       4.93483139       6.11060116       2.29419686
Si       1.32651596       0.74630926       2.40968493
Si       4.41666725       4.15705397       8.27227121
Si      -1.16700679       5.47212703       7.49211590
Si       0.95083332       3.06567823       3.17125830
Si       2.18404205       5.07924748       7.39239980
Si      -1.80983993       8.22202801       6.63533066
Si       4.49057428       3.93090819       5.69932820
Si       1.56544606       5.04325655       2.16253863
Si       3.60736790       7.94836872       2.98321169
Si       3.87570391       7.74568347       0.61396891
Si       6.70711420       4.24355545       7.01377237
Si      -0.70191518       4.87708768       1.43121130
Si      -1.90141173       8.11835469       9.12801637
Si      -1.15243885       2.21750706       2.00247301
Si       4.18762441       6.54280753       7.86954037
Si       2.90471744       2.14151999       6.99027736
Si      -0.07009714       3.93078742       5.35356621
Si       0.63458737       6.24975868       5.84374213
Si       3.70564407       1.18696846       1.30737791
Si       6.03881194       4.40530332       3.75522267
Si       2.22197922       6.41094731       3.98291983
24
Lattice="7.797465149250292 1.202372354433193 -0.3348045692043261 -2.887560928705356 6.788791045777299 1.0020667713275895 -0.49421701354174835 0.9308433019380591 8.268526119646282" Properties=species:S:1:pos:R:3 unique_starting_index=90 config_type=initial n_minim_iter=11 stress="0.001348186311193066 -0.001530104032264052 0.0006100450285390479 -0.001530104032264052 0.0028434786193073124 -0.0012646237312013522 0.0006100450285390479 -0.0012646237312013522 0.00029858266740122715" pbc="T T T"
Si       5.08377847       1.32263592       5.60438344
Si       1.09946883       2.93186499       0.48769912
Si       4.82929774       6.07535158       2.18082179
Si       1.30837057       0.72612782       2.36163913
Si       4.26539164       4.11714907       8.15756650
Si      -1.33831302       5.53370290       7.38151506
Si       0.89786606       3.04027733       3.14695937
Si       2.08740264       5.06121535       7.27488456
Si      -1.92665026       8.26416123       6.58683799
Si       4.42204552       3.82488655       5.56595473
Si       1.48293094       5.06750724       2.09050173
Si       3.47641519       7.95578798       2.86098504
Si       3.74976684       7.77035805       0.55402585
Si       6.59487373       4.15245750       6.88107451
Si      -0.77699456       4.96008255       1.41043342
Si      -2.08806225       8.15563714       9.00288126
Si      -1.16830508       2.25437989       1.94484619
Si       4.07127288       6.47396201       7.73379287
Si       2.84489553       2.07932650       6.89345988
Si      -0.16339518       3.92006221       5.26984462
Si       0.52548521       6.30546179       5.73925724
Si       3.67510956       1.15662226       1.23886281
Si       5.88424956       4.36536212       3.67492628
Si       2.08262854       6.41335189       3.90421094
24
Lattice="7.8394521298285715 1.1757508005960111 -0.3506754715062689 -2.918033131117183 6.773406249807912 1.0179155021267488 -0.5307756627969514 0.9485835142181546 8.18923710495321" Properties=species:S:1:pos:R:3 unique_starting_index=90 config_type=initial n_minim_iter=12 stress="-0.0020105133072480016 0.0006686929891165672 0.0010581930411469082 0.0006686929891165672 -0.0020219753277177636 0.0008744766521629697 0.0010581930411469082 0.0008744766521629697 -0.005068556850593252" pbc="T T T"
Si       5.11100412       1.36700426       5.56882978
Si       1.06307137       2.91168672       0.47471931
Si       4.87147547       5.99495516       2.13314795
Si       1.31278612       0.73592450       2.30542650
Si       4.20484802       4.13734881       8.08752375
Si      -1.45337911       5.55188629       7.29981856
Si       0.89648824       2.99404450       3.15434860
Si       2.08599851       5.07547589       7.19804286
Si      -1.95003205       8.19128212       6.59299018
Si       4.46065286       3.76521476       5.47048675
Si       1.47929611       5.04430818       2.05596682
Si       3.48336101       7.90115688       2.82771259
Si       3.76106761       7.69176098       0.55549248
Si       6.59633146       4.16768351       6.82264292
Si      -0.80485071       4.97197629       1.44254997
Si      -2.18870542       8.12395542       8.96536316
Si      -1.15117630       2.25536748       1.89349923
Si       4.08069854       6.45482529       7.68423951
Si       2.86996461       2.10806072       6.84336227
Si      -0.18844249       3.90560807       5.22203252
Si       0.51944383       6.32247816       5.69203698
Si       3.69558358       1.17697404       1.18044194
Si       5.79067793       4.38683872       3.63591600
Si       2.05100833       6.38969947       3.90039387
24
Lattice="7.6936971801389085 1.078124302921787 -0.37307329234520603 -2.9602110965935067 6.923886272449143 1.076501114830522 -0.5577515650802585 1.0302870390639423 8.106018945166603" Properties=species:S:1:pos:R:3 unique_starting_index=90 config_type=initial n_minim_iter=13 stress="-0.01089861165657103 -0.002328599130834963 0.0005975764729079273 -0.002328599130834963 -0.0006850427054629849 0.002327256375518868 0.0005975764729079273 0.002327256375518868 -0.010711461874450857" pbc="T T T"
Si       4.95766569       1.34800097       5.48069328
Si       1.00675744       2.94294817       0.44611407
Si       4.71109609       5.97148407       2.12077816
Si       1.30488251       0.75466181       2.28604527
Si       4.03591887       4.21856471       8.06415141
Si      -1.51893718       5.72987824       7.25690034
Si       0.87245836       3.01785794       3.14238389
Si       1.94596317       5.11067418       7.13758749
Si      -2.05164048       8.39107912       6.55542024
Si       4.30808102       3.77846394       5.43443848
Si       1.42024029       5.09492698       2.04994993
Si       3.34950789       7.98693060       2.87195858
Si       3.55179641       7.70793467       0.54430618
Si       6.43368158       4.22697117       6.74131684
Si      -0.85943868       5.13521531       1.49776333
Si      -2.30287136       8.36128734       8.97788567
Si      -1.16187801       2.34617437       1.90945635
Si       3.88454848       6.59127040       7.65296948
Si       2.83299528       2.14312665       6.76450562
Si      -0.20430752       4.00541075       5.20312790
Si       0.38682443       6.47545019       5.70131395
Si       3.58197029       1.13685323       1.13623953
Si       5.58964236       4.40965140       3.60167758
Si       1.91309161       6.46319204       3.90760864
24
Lattice="7.778787964421889 1.0757223704999948 -0.4328162815243623 -2.9809288055412706 6.782475500581249 1.0011188476735995 -0.593048796005867 0.9061665765118823 8.221468667065126" Properties=species:S:1:pos:R:3 unique_starting_index=90 config_type=initial n_minim_iter=14 stress="0.0011827351214256652 0.0013173844536473168 -0.0022502211145550887 0.0013173844536473168 -0.004081449475923995 -0.002180705128364432 -0.0022502211145550887 -0.002180705128364432 0.001612989046229846" pbc="T T T"
Si       4.97458002       1.25779301       5.51526686
Si       1.02450962       2.88154906       0.39456481
Si       4.76440072       5.82071625       2.02805015
Si       1.32629623       0.71962670       2.30360982
Si       4.04513214       4.04902551       8.13284042
Si      -1.54907710       5.54278325       7.28517174
Si       0.89820881       2.90734515       3.14338788
Si       1.93912646       4.90690215       7.15065980
Si      -2.08331195       8.14807329       6.51809327
Si       4.33529311       3.64011704       5.45535593
Si       1.45748781       4.96714155       1.98446757
Si       3.41261238       7.80637266       2.78905490
Si       3.58356995       7.54802737       0.39358207
Si       6.48177141       4.09495137       6.74998918
Si      -0.86295179       5.05664421       1.45613876
Si      -2.35617952       8.10494573       9.02823181
Si      -1.17391825       2.29024666       1.91886768
Si       3.89222032       6.40669205       7.66778958
Si       2.87407040       2.02126003       6.82636070
Si      -0.19305781       3.87039559       5.22048657
Si       0.37369836       6.29707457       5.70511246
Si       3.60432382       1.10152165       1.10695664
Si       5.62509464       4.29616459       3.55775701
Si       1.92821623       6.29613079       3.86268456
24
Lattice="7.753098211454297 1.055586547967909 -0.38533013108492287 -2.989192351370082 6.848587311562603 1.0472794005998374 -0.5555856568533952 0.9881050218972607 8.21771070735071" Properties=species:S:1:pos:R:3 unique_starting_index=90 config_type=initial n_minim_iter=15 stress="0.0026762834612175514 5.839713198712561e-05 0.0006979520334164812 5.839713198712561e-05 0.0007826072212398697 0.00023985487792797596 0.0006979520334164812 0.00023985487792797596 0.0039633290069919355" pbc="T T T"
Si       4.96713976       1.29142268       5.52951981
Si       1.02642847       2.90467576       0.42654281
Si       4.73082224       5.86632426       2.09976804
Si       1.34074091       0.74028615       2.32091026
Si       4.06136527       4.14044387       8.19474613
Si      -1.51800889       5.66303912       7.32491779
Si       0.91361407       2.95545207       3.16842348
Si       1.94273641       4.98238077       7.19007471
Si      -2.07313724       8.27787155       6.56216177
Si       4.33009851       3.70398722       5.51817519
Si       1.45802949       5.00594903       2.03109581
Si       3.40512900       7.87188523       2.87572354
Si       3.54063132       7.60014773       0.47943966
Si       6.47885752       4.16578856       6.80003891
Si      -0.86356948       5.12151069       1.49285121
Si      -2.33237916       8.26128875       9.08245195
Si      -1.17498840       2.33336297       1.94483256
Si       3.88667010       6.51232683       7.73519331
Si       2.89873500       2.07919227       6.84370163
Si      -0.17007564       3.94476095       5.24370617
Si       0.37047256       6.39239550       5.76671171
Si       3.58974910       1.09917036       1.13501799
Si       5.62760528       4.33184302       3.62033467
Si       1.92164769       6.36833217       3.91987650
24
Lattice="7.69416899227219 1.0049859150059068 -0.35998771558887044 -3.0272237399247457 7.03134809512744 1.1185169874553809 -0.5560718451385407 1.100595899459684 8.107837100840884" Properties=species:S:1:pos:R:3 unique_starting_index=90 config_type=initial n_minim_iter=16 stress="0.0023544937771823593 -0.0014012013869310856 0.002467680012957531 -0.0014012013869310856 0.009524670277151526 0.0016648443093961406 0.002467680012957531 0.0016648443093961406 -0.0012073217137963032" pbc="T T T"
Si       4.88924350       1.32898578       5.43310641
Si       1.02249253       2.94897752       0.49446484
Si       4.61638223       5.95935828       2.12372927
Si       1.36256106       0.76542281       2.29399529
Si       3.98738781       4.28108874       8.17863376
Si      -1.55773834       5.92892816       7.30278984
Si       0.93382099       3.03405629       3.17259841
Si       1.87030760       5.12207763       7.10251312
Si      -2.10273215       8.51469239       6.55557505
Si       4.27614698       3.79726677       5.52888276
Si       1.44143839       5.07411300       2.03804099
Si       3.37496563       7.99286120       2.92557088
Si       3.42378496       7.75790536       0.59612643
Si       6.34799026       4.28789618       6.73803179
Si      -0.88284829       5.30066294       1.52606917
Si      -2.40577694       8.58623639       9.07955079
Si      -1.19252498       2.42763611       1.97833907
Si       3.77148542       6.71237298       7.71975121
Si       2.90187510       2.15726866       6.76926781
Si      -0.17184336       4.07858895       5.17440069
Si       0.30606923       6.59078900       5.79376016
Si       3.55049521       1.09082856       1.12400390
Si       5.54966904       4.39637127       3.61540990
Si       1.84905387       6.54619906       3.93311712
24
Lattice="7.652849486739027 0.952594258865609 -0.3941277019791147 -3.0392697850249024 6.963510406768055 1.1391078590858765 -0.5719207688228561 1.1152766029058723 8.215362991158983" Properties=species:S:1:pos:R:3 unique_starting_index=90 config_type=initial n_minim_iter=17 stress="0.0016145807170993764 -0.0004551530799969899 -0.0002495686749941136 -0.0004551530799969899 0.0027566023691314168 0.0014068444520924249 -0.0002495686749941136 0.0014068444520924249 0.002908534193908462" pbc="T T T"
Si       4.83117868       1.33173661       5.47122232
Si       1.01335724       2.89052601       0.52877633
Si       4.54466658       5.84760161       2.09065235
Si       1.38293609       0.76262430       2.30718312
Si       3.90070528       4.25527229       8.31959409
Si      -1.63160845       5.95412380       7.40451071
Si       0.96266946       2.97415713       3.23842878
Si       1.82384497       5.06590101       7.13352733
Si      -2.09093884       8.38281969       6.66575367
Si       4.25391828       3.71928112       5.59884420
Si       1.44577520       4.97144009       2.02539326
Si       3.38431705       7.83648638       2.92690061
Si       3.35396693       7.65976477       0.60897980
Si       6.23423056       4.25561550       6.79554787
Si      -0.88731256       5.29168146       1.54353479
Si      -2.47942366       8.53413328       9.22244955
Si      -1.18882571       2.41671906       2.01825309
Si       3.69274717       6.63389298       7.81726453
Si       2.90443658       2.12968819       6.84855111
Si      -0.17960005       4.02917936       5.19107914
Si       0.27511377       6.54010839       5.88190451
Si       3.53292778       1.06922089       1.10308173
Si       5.45562263       4.32868504       3.63653360
Si       1.78779702       6.48474082       3.96223527
24
Lattice="7.5727656733232385 1.0213870504681677 -0.3607708991082645 -2.954661740556592 6.8505641567579305 1.0213631348225218 -0.4996548168961713 0.9711075247099653 8.224891392329068" Properties=species:S:1:pos:R:3 unique_starting_index=90 config_type=initial n_minim_iter=18 stress="-0.002820800924143203 0.0033291463425497835 -0.00041591929979440816 0.0033291463425497835 -0.008710514951102952 -0.0044872170018887365 -0.00041591929979440816 -0.0044872170018887365 -0.004631184682060192" pbc="T T T"
Si       4.83752907       1.28715438       5.50750023
Si       1.03137050       2.82651270       0.53047377
Si       4.53354152       5.78148526       2.01652775
Si       1.40271591       0.74071851       2.31886478
Si       3.93899590       4.10596903       8.33483599
Si      -1.53806282       5.78138418       7.34115840
Si       1.02275510       2.88756581       3.22344186
Si       1.88378563       4.92713058       7.05614717
Si      -1.94877732       8.16502024       6.56060044
Si       4.26130601       3.65119565       5.58518697
Si       1.49970481       4.90112500       1.97153823
Si       3.45793516       7.74631109       2.85825493
Si       3.35191299       7.62098294       0.51151829
Si       6.21342648       4.20860444       6.82227538
Si      -0.82677048       5.21082514       1.44821906
Si      -2.34788622       8.30492904       9.10840467
Si      -1.14446736       2.33330113       2.00600749
Si       3.70536736       6.50223612       7.77783258
Si       2.94245469       2.01789875       6.87443231
Si      -0.11518941       3.90839221       5.12067073
Si       0.35977320       6.36506248       5.80402494
Si       3.52854315       1.07203554       1.11730229
Si       5.43552252       4.27784313       3.60252453
Si       1.81911301       6.40092863       3.85978960
24
Lattice="7.518672982721742 0.8822370827559326 -0.34740909129217395 -3.0436241582195103 6.945715712993519 1.1073089282001691 -0.49793603495032607 1.1046254723220346 8.243871453794567" Properties=species:S:1:pos:R:3 unique_starting_index=90 config_type=initial n_minim_iter=19 stress="-0.0005915571583521553 3.53084578974617e-05 -0.0012970953729829328 3.53084578974617e-05 -0.0067213503827151825 -0.0010635939444914172 -0.0012970953729829328 -0.0010635939444914172 -0.002769667385886502" pbc="T T T"
Si       4.81649887       1.29937710       5.53275967
Si       0.98786049       2.78179483       0.59706765
Si       4.40441332       5.70884325       2.04700031
Si       1.41192162       0.76398279       2.34861185
Si       3.85808000       4.17600300       8.44690211
Si      -1.63844609       5.96870014       7.42937601
Si       1.03084944       2.90209651       3.28396012
Si       1.81365755       4.99768716       7.07007689
Si      -2.02296773       8.31295184       6.68744539
Si       4.17180376       3.68263428       5.61877152
Si       1.46790865       4.91391860       2.04612679
Si       3.39151646       7.76309470       2.98388342
Si       3.17986961       7.61712964       0.59629969
Si       6.10500520       4.28259538       6.91792923
Si      -0.88878102       5.28014301       1.49161898
Si      -2.47233645       8.53175489       9.19557806
Si      -1.16410172       2.36712594       2.06603324
Si       3.53737829       6.58843835       7.87048159
Si       2.91932181       2.04896508       6.92190871
Si      -0.16725354       3.99749449       5.13856753
Si       0.26925597       6.44341591       5.87764905
Si       3.52449932       1.02216524       1.13514329
Si       5.32862505       4.24612534       3.64674395
Si       1.68024981       6.47057777       3.88862293
24
Lattice="7.3778679387930115 0.8705292990755973 -0.3100639217920516 -3.0076902067058233 7.033711197314464 1.1714742803694762 -0.45082561412689587 1.2030819902966423 8.283184245150114" Properties=species:S:1:pos:R:3 unique_starting_index=90 config_type=initial n_minim_iter=20 stress="-0.002532197032981539 2.0837483486823464e-05 -0.0009090769819064905 2.0837483486823464e-05 -0.0024897824730624593 0.0004223428959188552 -0.0009090769819064905 0.0004223428959188552 -0.0014896598870632362" pbc="T T T"
Si       4.75106113       1.36040897       5.57292281
Si       0.97534376       2.78310084       0.65213700
Si       4.27912526       5.75286252       2.09680105
Si       1.41857241       0.80218016       2.40441276
Si       3.81541625       4.30997857       8.59402198
Si      -1.60708238       6.13430585       7.52592681
Si       1.06987925       2.94836892       3.34581354
Si       1.80011966       5.07712425       7.11028897
Si      -1.96350224       8.48424919       6.79754759
Si       4.07599751       3.79100121       5.68917479
Si       1.48400811       4.97356358       2.13024165
Si       3.38462831       7.87688811       3.11616386
Si       3.05335137       7.72799122       0.68734287
Si       5.99993362       4.44572443       7.03419081
Si      -0.86576603       5.36431044       1.52146273
Si      -2.42154093       8.73535811       9.26827962
Si      -1.14412977       2.39590455       2.13388859
Si       3.42587987       6.73370324       7.97336544
Si       2.89772749       2.09843284       6.98315011
Si      -0.15319688       4.08838211       5.17222032
Si       0.26017434       6.54341050       5.95544324
Si       3.48380401       1.01734059       1.17697684
Si       5.24792946       4.29757415       3.71631521
Si       1.60971099       6.58482356       3.91631871
24
Lattice="7.330667191671143 0.7980490417077658 -0.26613137601666836 -3.0562912269186375 7.123381782813902 1.187071038015232 -0.4072314379837699 1.2533191937937467 8.283549148849406" Properties=species:S:1:pos:R:3 unique_starting_index=90 config_type=initial n_minim_iter=21 stress="0.0015569900665291616 -0.0013226176182442508 0.0012252955624373332 -0.0013226176182442508 0.0038075041996204193 8.612954140671382e-06 0.0012252955624373332 8.612954140671382e-06 0.0004288595286860926" pbc="T T T"
Si       4.74374809       1.35213956       5.58840459
Si       0.95102618       2.78415274       0.66986433
Si       4.17770453       5.73531819       2.11362242
Si       1.43771547       0.80917675       2.44926285
Si       3.80270075       4.37446656       8.69630692
Si      -1.64170954       6.25084814       7.54548545
Si       1.10881028       2.95693202       3.39022983
Si       1.79972359       5.06949553       7.10846421
Si      -1.98411587       8.61536558       6.83366087
Si       4.02124543       3.81470679       5.72037880
Si       1.49173002       4.99301783       2.18043903
Si       3.37780725       7.91477903       3.18655867
Si       2.91981445       7.79245516       0.75033230
Si       5.96153968       4.50627451       7.09372161
Si      -0.88446558       5.44272516       1.52572890
Si      -2.44644838       8.86553102       9.24907613
Si      -1.14580421       2.42025727       2.16661595
Si       3.34039774       6.77759281       8.00788113
Si       2.92018287       2.08149566       7.01572872
Si      -0.16165147       4.13838060       5.17925916
Si       0.22346336       6.60319405       5.96746920
Si       3.47827745       0.98030854       1.19813965
Si       5.20072677       4.28458663       3.76084633
Si       1.52371569       6.63716031       3.90683463
