22
Lattice="3.797775375482499 -3.569507953985629e-32 -1.0516374963185763e-19 1.5059009352738486e-31 10.335620645498347 1.9300999504640713e-12 3.416208569536111e-19 -2.3038321165573935e-12 12.33694388828285" Properties=species:S:1:pos:R:3 unique_starting_index=32 config_type=initial n_minim_iter=1 energy=-3581.2616101679287 free_energy=-3581.2616101679287 pbc="T T T"
Si       0.68059802       1.53647919       6.59040736
Si       3.11717736       8.79914145       6.59040736
Si       0.68059802       3.63133113       0.42193541
Si       3.11717736       6.70428952       0.42193541
Si       2.56906247       2.59007113      11.76633897
Si       1.22871291       7.74554951      11.76633897
Si       2.56906247       2.57773919       5.59786702
Si       1.22871291       7.75788146       5.59786702
Si       2.26267914       2.10144335       9.46457487
Si       1.53509624       8.23417729       9.46457487
Si       2.26267914       3.06636697       3.29610292
Si       1.53509624       7.26925368       3.29610292
Si       0.92393790       5.82537410       6.88654591
Si       2.87383748       4.51024655       6.88654591
Si       0.92393790       9.67805687       0.71807397
Si       2.87383748       0.65756378       0.71807397
Si       0.30909889       2.10548841       2.26940990
Si       3.48867649       8.23013224       2.26940990
Si       0.30909889       3.06232191       8.43788185
Si       3.48867649       7.27329873       8.43788185
Si       1.89888769       5.16781032       2.05199773
Si       1.89888769      -0.00000000       8.22046968
22
Lattice="3.7949569794124876 -3.754842577505977e-32 -1.090341883512076e-19 1.431539522920659e-31 10.310724849495552 1.92551388216144e-12 3.2832416764651213e-19 -2.3003504738868357e-12 12.318704731197935" Properties=species:S:1:pos:R:3 unique_starting_index=32 config_type=initial n_minim_iter=2 stress="-0.0012641733610032312 8.165892372156225e-18 -3.4978996929129484e-17 8.165892372156225e-18 -0.00012069349473216578 1.8748931848277743e-16 -3.4978996929129484e-17 1.8748931848277743e-16 -0.0005031816605667985" pbc="T T T"
Si       0.68021817       1.53263068       6.58081646
Si       3.11473881       8.77809417       6.58081646
Si       0.68021817       3.62273175       0.42146410
Si       3.11473881       6.68799310       0.42146410
Si       2.56671223       2.58398193      11.74870485
Si       1.22824475       7.72674292      11.74870485
Si       2.56671223       2.57138049       5.58935249
Si       1.22824475       7.73934436       5.58935249
Si       2.26090752       2.09637063       9.45048772
Si       1.53404946       8.21435422       9.45048772
Si       2.26090752       3.05899179       3.29113536
Si       1.53404946       7.25173306       3.29113536
Si       0.92345365       5.81121843       6.87651239
Si       2.87150333       4.49950642       6.87651239
Si       0.92345365       9.65486884       0.71716002
Si       2.87150333       0.65585601       0.71716002
Si       0.30893117       2.10027776       2.26602796
Si       3.48602581       8.21044709       2.26602796
Si       0.30893117       3.05508466       8.42538033
Si       3.48602581       7.25564018       8.42538033
Si       1.89747849       5.15536242       2.04908355
Si       1.89747849      -0.00000000       8.20843591
22
Lattice="3.8111787776333994 -3.9486824240943275e-32 -1.0997678649213841e-19 1.3749182586641265e-31 10.275205547912545 1.9188291967847503e-12 3.2659900394308105e-19 -2.2998289507211433e-12 12.315579686251136" Properties=species:S:1:pos:R:3 unique_starting_index=32 config_type=initial n_minim_iter=3 stress="0.0018971659217397428 -6.920750566893351e-17 -7.302702678675556e-17 -6.920750566893351e-17 -0.0008361905737211185 2.3866255179251473e-16 -7.302702678675556e-17 2.3866255179251473e-16 -0.0007481591893160074" pbc="T T T"
Si       0.68379258       1.52618511       6.57989966
Si       3.12738620       8.74902044       6.57989966
Si       0.68379258       3.61141767       0.42210981
Si       3.12738620       6.66378788       0.42210981
Si       2.57505592       2.57610723      11.74412927
Si       1.23612285       7.69909831      11.74412927
Si       2.57505592       2.56149554       5.58633943
Si       1.23612285       7.71371001       5.58633943
Si       2.26999500       2.08906062       9.44762534
Si       1.54118378       8.18614493       9.44762534
Si       2.26999500       3.04854215       3.28983550
Si       1.54118378       7.22666340       3.28983550
Si       0.92870726       5.79036807       6.87569084
Si       2.88247151       4.48483748       6.87569084
Si       0.92870726       9.62244025       0.71790100
Si       2.88247151       0.65276529       0.71790100
Si       0.31071717       2.09199030       2.26547488
Si       3.50046161       8.18321525       2.26547488
Si       0.31071717       3.04561247       8.42326472
Si       3.50046161       7.22959307       8.42326472
Si       1.90558939       5.13760277       2.04928928
Si       1.90558939      -0.00000000       8.20707912
22
Lattice="3.8054082177887842 -4.204916042807118e-32 -1.056656041683354e-19 1.3193927510660323e-31 10.239042287466605 1.9120791058209862e-12 3.4167780113488564e-19 -2.310198118779305e-12 12.371125118292307" Properties=species:S:1:pos:R:3 unique_starting_index=32 config_type=initial n_minim_iter=4 stress="3.3042976335038796e-05 -4.8884610062677964e-17 -1.3308729815447697e-16 -4.8884610062677964e-17 -0.0010159902684116235 -2.661400624008623e-16 -1.3308729815447697e-16 -2.661400624008623e-16 0.0013485572989986718" pbc="T T T"
Si       0.68487941       1.51629073       6.61192737
Si       3.12052881       8.72275156       6.61192737
Si       0.68487941       3.60323042       0.42636482
Si       3.12052881       6.63581187       0.42636482
Si       2.56140373       2.57161563      11.79126800
Si       1.24400449       7.66742666      11.79126800
Si       2.56140373       2.54790552       5.60570544
Si       1.24400449       7.69113677       5.60570544
Si       2.26468265       2.08191683       9.48806331
Si       1.54072557       8.15712546       9.48806331
Si       2.26468265       3.03760432       3.30250075
Si       1.54072557       7.20143797       3.30250075
Si       0.93196735       5.76620632       6.91039846
Si       2.87344087       4.47283597       6.91039846
Si       0.93196735       9.59235711       0.72483590
Si       2.87344087       0.64668518       0.72483590
Si       0.31179561       2.08077193       2.27632339
Si       3.49361261       8.15827036       2.27632339
Si       0.31179561       3.03874922       8.46188595
Si       3.49361261       7.20029307       8.46188595
Si       1.90270411       5.11952114       2.06117750
Si       1.90270411      -0.00000000       8.24674006
22
Lattice="3.805073080189243 -4.0995532868851115e-32 -1.1036497908733274e-19 1.3283458697274744e-31 10.26668843272643 1.9172622741183167e-12 3.249337791686131e-19 -2.3006407602411735e-12 12.320076461096575" Properties=species:S:1:pos:R:3 unique_starting_index=32 config_type=initial n_minim_iter=5 stress="2.3074696734031464e-05 -1.0699066597044768e-16 -4.685756872766211e-17 -1.0699066597044768e-16 0.00012165209453237091 4.4172679159588747e-16 -4.685756872766211e-17 4.4172679159588747e-16 -0.0003335869071015774" pbc="T T T"
Si       0.68478310       1.51809273       6.58578543
Si       3.12028998       8.74859570       6.58578543
Si       0.68478310       3.61525148       0.42574720
Si       3.12028998       6.65143695       0.42574720
Si       2.55691234       2.58079286      11.73991688
Si       1.24816074       7.68589557      11.73991688
Si       2.55691234       2.55255136       5.57987865
Si       1.24816074       7.71413708       5.57987865
Si       2.26378608       2.08798484       9.44795921
Si       1.54128700       8.17870360       9.44795921
Si       2.26378608       3.04535938       3.28792098
Si       1.54128700       7.22132905       3.28792098
Si       0.93376606       5.78072677       6.88357996
Si       2.87130702       4.48596166       6.88357996
Si       0.93376606       9.61930588       0.72354173
Si       2.87130702       0.64738256       0.72354173
Si       0.31229232       2.08444676       2.26705008
Si       3.49278076       8.18224167       2.26705008
Si       0.31229232       3.04889746       8.42708831
Si       3.49278076       7.21779098       8.42708831
Si       1.90253654       5.13334422       2.05405027
Si       1.90253654      -0.00000000       8.21408850
22
Lattice="3.804925480895464 -4.437022979567284e-32 -1.0804534785545268e-19 1.2414549261146433e-31 10.223795070218403 1.9092540746759594e-12 3.333416978573675e-19 -2.3064043805500976e-12 12.350951424266906" Properties=species:S:1:pos:R:3 unique_starting_index=32 config_type=initial n_minim_iter=6 stress="-0.000564525937373909 -2.6329825973466073e-18 -8.164639486937097e-17 -2.6329825973466073e-18 0.00043248977003617847 1.8689770460254743e-16 -8.164639486937097e-17 1.8689770460254743e-16 0.001389454536809949" pbc="T T T"
Si       0.66680586       1.49649302       6.60705175
Si       3.13811962       8.72730205       6.60705175
Si       0.66680586       3.61540452       0.43157604
Si       3.13811962       6.60839055       0.43157604
Si       2.53754620       2.58311603      11.76343131
Si       1.26737928       7.64067904      11.76343131
Si       2.53754620       2.52878151       5.58795560
Si       1.26737928       7.69501356       5.58795560
Si       2.26220621       2.08494278       9.45944851
Si       1.54271927       8.13885229       9.45944851
Si       2.26220621       3.02695476       3.28397280
Si       1.54271927       7.19684031       3.28397280
Si       0.93672688       5.76200533       6.90676206
Si       2.86819860       4.46178974       6.90676206
Si       0.93672688       9.57368727       0.73128635
Si       2.86819860       0.65010780       0.73128635
Si       0.31214525       2.06159630       2.27404232
Si       3.49278023       8.16219877       2.27404232
Si       0.31214525       3.05030123       8.44951803
Si       3.49278023       7.17349384       8.44951803
Si       1.90246274       5.11189754       2.07137873
Si       1.90246274      -0.00000000       8.24685444
22
Lattice="3.8091910372647018 -4.54377686947278e-32 -1.1161139629276449e-19 1.1958535649935196e-31 10.22434252716434 1.9093300102640285e-12 3.2092155069536955e-19 -2.298587254107311e-12 12.3089233034134" Properties=species:S:1:pos:R:3 unique_starting_index=32 config_type=initial n_minim_iter=7 stress="0.00019330636865625393 4.6996726264333785e-17 2.6746619665387485e-17 4.6996726264333785e-17 1.5456230516489854e-05 3.757835219984015e-16 2.6746619665387485e-17 3.757835219984015e-16 -0.0003340602853788982" pbc="T T T"
Si       0.65274272       1.49156140       6.58469115
Si       3.15644832       8.73278112       6.58469115
Si       0.65274272       3.62060986       0.43022950
Si       3.15644832       6.60373267       0.43022950
Si       2.53755095       2.58683498      11.72623305
Si       1.27164008       7.63750755      11.72623305
Si       2.53755095       2.52533628       5.57177139
Si       1.27164008       7.69900624       5.57177139
Si       2.26566974       2.08922211       9.42423465
Si       1.54352129       8.13512042       9.42423465
Si       2.26566974       3.02294915       3.26977299
Si       1.54352129       7.20139337       3.26977299
Si       0.93475890       5.76893924       6.88116532
Si       2.87443213       4.45540328       6.88116532
Si       0.93475890       9.56757455       0.72670367
Si       2.87443213       0.65676798       0.72670367
Si       0.31124904       2.05761423       2.26620509
Si       3.49794200       8.16672830       2.26620509
Si       0.31124904       3.05455704       8.42066674
Si       3.49794200       7.16978549       8.42066674
Si       1.90459552       5.11217126       2.06886151
Si       1.90459552      -0.00000000       8.22332316
22
Lattice="3.814234578415193 -5.779078425525241e-32 -1.0805489484720462e-19 8.496430648038393e-32 10.05388925557598 1.8773422585988953e-12 3.3440782228482846e-19 -2.308481528462669e-12 12.360912385299377" Properties=species:S:1:pos:R:3 unique_starting_index=32 config_type=initial n_minim_iter=8 stress="-0.0004975393396023104 1.1464733666608292e-16 -3.257769508590017e-17 1.1464733666608292e-16 -0.00037252748676530145 4.741788078364278e-16 -3.257769508590017e-17 4.741788078364278e-16 -0.0009491907792963683" pbc="T T T"
Si       0.56671805       1.42097067       6.61590812
Si       3.24751653       8.63291859       6.61590812
Si       0.56671805       3.60597396       0.43545193
Si       3.24751653       6.44791530       0.43545193
Si       2.46713024       2.58064228      11.77695769
Si       1.34710434       7.47324697      11.77695769
Si       2.46713024       2.44630234       5.59650150
Si       1.34710434       7.60758691       5.59650150
Si       2.26398274       2.09088049       9.48533843
Si       1.55025184       7.96300877       9.48533843
Si       2.26398274       2.93606414       3.30488224
Si       1.55025184       7.11782512       3.30488224
Si       0.94391581       5.67500810       6.87364468
Si       2.87031877       4.37888116       6.87364468
Si       0.94391581       9.40582578       0.69318849
Si       2.87031877       0.64806347       0.69318849
Si       0.32043308       2.00668858       2.27267421
Si       3.49380150       8.04720068       2.27267421
Si       0.32043308       3.02025605       8.45313040
Si       3.49380150       7.03363320       8.45313040
Si       1.90711729       5.02694463       2.10517276
Si       1.90711729      -0.00000000       8.28562896
22
Lattice="3.828905043002336 -7.920310875155641e-32 -1.056552082583294e-19 2.246795117364807e-32 9.78915459237697 1.8281998901403926e-12 3.46643285912085e-19 -2.328574471531204e-12 12.470431367231335" Properties=species:S:1:pos:R:3 unique_starting_index=32 config_type=initial n_minim_iter=9 stress="0.0014069908204284625 -1.1883662902553193e-17 8.161311266042051e-17 -1.1883662902553193e-17 0.0016387774141300153 8.853629102802064e-16 8.161311266042051e-17 8.853629102802064e-16 -9.839552360327499e-05" pbc="T T T"
Si       0.43228611       1.30369022       6.68601617
Si       3.39661893       8.48546437       6.68601617
Si       0.43228611       3.59088708       0.45080048
Si       3.39661893       6.19826751       0.45080048
Si       2.35355121       2.57602302      11.88149445
Si       1.47535383       7.21313158      11.88149445
Si       2.35355121       2.31855428       5.64627877
Si       1.47535383       7.47060031       5.64627877
Si       2.26770524       2.09048631       9.58662975
Si       1.56119981       7.69866828       9.58662975
Si       2.26770524       2.80409099       3.35141406
Si       1.56119981       6.98506360       3.35141406
Si       0.95798694       5.53625697       6.88589304
Si       2.87091810       4.25289763       6.88589304
Si       0.95798694       9.14747492       0.65067736
Si       2.87091810       0.64167967       0.65067736
Si       0.32738112       1.92253350       2.28591426
Si       3.50152392       7.86662110       2.28591426
Si       0.32738112       2.97204380       8.52112995
Si       3.50152392       6.81711079       8.52112995
Si       1.91445252       4.89457730       2.17705806
Si       1.91445252      -0.00000000       8.41227375
22
Lattice="3.8305541977884383 -8.233954712962093e-32 -1.0871049443153217e-19 1.0242270839166007e-32 9.708349175185386 1.8131867228519357e-12 3.382254198234001e-19 -2.336901875238279e-12 12.515504742780521" Properties=species:S:1:pos:R:3 unique_starting_index=32 config_type=initial n_minim_iter=10 stress="0.0011317464460528623 -8.005881623658456e-18 5.661651848129241e-17 -8.005881623658456e-18 0.0004315461253088916 6.425242747944335e-16 5.661651848129241e-17 6.425242747944335e-16 0.0001447093542973089" pbc="T T T"
Si       0.39979200       1.27121496       6.71421614
Si       3.43076220       8.43713421       6.71421614
Si       0.39979200       3.58295963       0.45646376
Si       3.43076220       6.12538955       0.45646376
Si       2.32294603       2.57168012      11.92523538
Si       1.50760817       7.13666905      11.92523538
Si       2.32294603       2.28249447       5.66748301
Si       1.50760817       7.42585471       5.66748301
Si       2.26800240       2.08664828       9.62532134
Si       1.56255179       7.62170089       9.62532134
Si       2.26800240       2.76752630       3.36756897
Si       1.56255179       6.94082287       3.36756897
Si       0.96027108       5.49418028       6.89799560
Si       2.87028312       4.21416890       6.89799560
Si       0.96027108       9.06834349       0.64024323
Si       2.87028312       0.64000569       0.64024323
Si       0.32645351       1.90071362       2.29071962
Si       3.50410069       7.80763555       2.29071962
Si       0.32645351       2.95346097       8.54847200
Si       3.50410069       6.75488821       8.54847200
Si       1.91527710       4.85417459       2.19966934
Si       1.91527710      -0.00000000       8.45742171
22
Lattice="3.822548907038717 -8.275429952894999e-32 -1.160961584984463e-19 4.35214636574826e-33 9.673750941466382 1.80681582880073e-12 3.1582179068508207e-19 -2.349539928095482e-12 12.583742917520205" Properties=species:S:1:pos:R:3 unique_starting_index=32 config_type=initial n_minim_iter=11 stress="-0.0011190450892434934 1.3689107644823334e-17 4.893178521225448e-17 1.3689107644823334e-17 -0.001812889735413899 -3.7615600881335136e-17 4.893178521225448e-17 -3.7615600881335136e-17 0.0012386070071030366" pbc="T T T"
Si       0.40329002       1.25723366       6.75618444
Si       3.41925888       8.41651728       6.75618444
Si       0.40329002       3.57964181       0.46431298
Si       3.41925888       6.09410913       0.46431298
Si       2.31173793       2.56893797      11.99456024
Si       1.51081097       7.10481297      11.99456024
Si       2.31173793       2.26793750       5.70268878
Si       1.51081097       7.40581344       5.70268878
Si       2.26566794       2.07994199       9.67890929
Si       1.55688096       7.59380895       9.67890929
Si       2.26566794       2.75693348       3.38703783
Si       1.55688096       6.91681746       3.38703783
Si       0.95483157       5.47857251       6.92998695
Si       2.86771734       4.19517844       6.92998695
Si       0.95483157       9.03205391       0.63811549
Si       2.86771734       0.64169703       0.63811549
Si       0.31460258       1.90316843       2.29453269
Si       3.50794633       7.77058251       2.29453269
Si       0.31460258       2.93370704       8.58640415
Si       3.50794633       6.74004390       8.58640415
Si       1.91127445       4.83687547       2.21870616
Si       1.91127445      -0.00000000       8.51057762
22
Lattice="3.8175747200243464 -8.138956128576599e-32 -1.2926925761724008e-19 1.9986359272790842e-33 9.695630078878716 1.810850175009289e-12 2.7310810200782014e-19 -2.3517477728443866e-12 12.595239818938477" Properties=species:S:1:pos:R:3 unique_starting_index=32 config_type=initial n_minim_iter=12 stress="-0.0017850237214720728 -6.962744198872054e-17 1.9466051547890507e-17 -6.962744198872054e-17 -0.0022649463114634612 2.0098215309557068e-17 1.9466051547890507e-17 2.0098215309557068e-17 0.0008546559133180383" pbc="T T T"
Si       0.41569483       1.25079266       6.76863618
Si       3.40187989       8.44483742       6.76863618
Si       0.41569483       3.59702238       0.47101627
Si       3.40187989       6.09860770       0.47101627
Si       2.30918722       2.58081353      12.01103190
Si       1.50838750       7.11481655      12.01103190
Si       2.30918722       2.26700151       5.71341199
Si       1.50838750       7.42862857       5.71341199
Si       2.26307300       2.08321904       9.69268698
Si       1.55450172       7.61241104       9.69268698
Si       2.26307300       2.76459600       3.39506707
Si       1.55450172       6.93103408       3.39506707
Si       0.94913479       5.49488682       6.92845336
Si       2.86843993       4.20074326       6.92845336
Si       0.94913479       9.04855830       0.63083346
Si       2.86843993       0.64707178       0.63083346
Si       0.29966320       1.92548723       2.28391852
Si       3.51791152       7.77014285       2.28391852
Si       0.29966320       2.92232781       8.58153843
Si       3.51791152       6.77330227       8.58153843
Si       1.90878736       4.84781504       2.22843064
Si       1.90878736      -0.00000000       8.52605055
22
Lattice="3.8150281325587665 -7.967727520519537e-32 -1.416419428777887e-19 9.783849895465964e-34 9.71633159168447 1.8146890077439991e-12 2.3278054538278925e-19 -2.3518133840317046e-12 12.595422045406071" Properties=species:S:1:pos:R:3 unique_starting_index=32 config_type=initial n_minim_iter=13 stress="-0.0009262435202216954 1.1688968203188404e-16 9.256241600867426e-17 1.1688968203188404e-16 -0.0017887579574535233 6.346765317487562e-17 9.256241600867426e-17 6.346765317487562e-17 0.00023927222220332817" pbc="T T T"
Si       0.41028277       1.23046465       6.77712888
Si       3.40474537       8.48586694       6.77712888
Si       0.41028277       3.62770115       0.47941786
Si       3.40474537       6.08863045       0.47941786
Si       2.29542763       2.60334379      12.01728863
Si       1.51960050       7.11298780      12.01728863
Si       2.29542763       2.25482200       5.71957761
Si       1.51960050       7.46150959       5.71957761
Si       2.25617359       2.09372295       9.70407307
Si       1.55885454       7.62260865       9.70407307
Si       2.25617359       2.76444285       3.40636205
Si       1.55885454       6.95188874       3.40636205
Si       0.94614808       5.51224526       6.91000234
Si       2.86888005       4.20408633       6.91000234
Si       0.94614808       9.06225213       0.61229132
Si       2.86888005       0.65407946       0.61229132
Si       0.28457760       1.95030679       2.26704117
Si       3.53045053       7.76602480       2.26704117
Si       0.28457760       2.90785901       8.56475219
Si       3.53045053       6.80847258       8.56475219
Si       1.90751407       4.85816580       2.24793900
Si       1.90751407      -0.00000000       8.54565002
22
Lattice="3.808421397177511 -7.88985867479891e-32 -1.5163139363468198e-19 6.04560600919488e-34 9.80349490111683 1.830952546076018e-12 1.9863236240684082e-19 -2.3454634880133544e-12 12.561347194842142" Properties=species:S:1:pos:R:3 unique_starting_index=32 config_type=initial n_minim_iter=14 stress="-0.00010760950857135211 1.6019585778892933e-16 1.1224143580794598e-16 1.6019585778892933e-16 0.000829873508044281 7.542413753117616e-16 1.1224143580794598e-16 7.542413753117616e-16 -0.0010439500281584052" pbc="T T T"
Si       0.42229415       1.22674179       6.76541290
Si       3.38612724       8.57675311       6.76541290
Si       0.42229415       3.67500566       0.48473931
Si       3.38612724       6.12848924       0.48473931
Si       2.30230416       2.63785536      11.98979257
Si       1.50611724       7.16563954      11.98979257
Si       2.30230416       2.26389209       5.70911897
Si       1.50611724       7.53960281       5.70911897
Si       2.23953470       2.11075937       9.68726345
Si       1.56888670       7.69273553       9.68726345
Si       2.23953470       2.79098808       3.40658985
Si       1.56888670       7.01250682       3.40658985
Si       0.94265097       5.56616153       6.87790304
Si       2.86577042       4.23733337       6.87790304
Si       0.94265097       9.13908082       0.59722945
Si       2.86577042       0.66441408       0.59722945
Si       0.26847899       1.99791307       2.24365153
Si       3.53994241       7.80558183       2.24365153
Si       0.26847899       2.90383438       8.52432513
Si       3.53994241       6.89966052       8.52432513
Si       1.90421070       4.90174745       2.26102880
Si       1.90421070      -0.00000000       8.54170240
22
Lattice="3.805591061744571 -7.760392327148908e-32 -1.5893535764932353e-19 3.461320983695796e-34 9.801446190322611 1.830375974640209e-12 1.755325649001008e-19 -2.3489931482557825e-12 12.579007167764402" Properties=species:S:1:pos:R:3 unique_starting_index=32 config_type=initial n_minim_iter=15 stress="0.0012945920960389962 1.0575438456725386e-16 8.955991618248719e-18 1.0575438456725386e-16 0.0008206973910662862 7.1140874633859725e-16 8.955991618248719e-18 7.1140874633859725e-16 -0.0011098390090324077" pbc="T T T"
Si       0.40217555       1.19426283       6.78247424
Si       3.40341551       8.60718336       6.78247424
Si       0.40217555       3.70646027       0.49297066
Si       3.40341551       6.09498593       0.49297066
Si       2.28765320       2.66313479      12.00900836
Si       1.51793787       7.13831140      12.00900836
Si       2.28765320       2.23758831       5.71950478
Si       1.51793787       7.56385789       5.71950478
Si       2.21947450       2.12067114       9.71207988
Si       1.58611656       7.68077505       9.71207988
Si       2.21947450       2.78005196       3.42257630
Si       1.58611656       7.02139423       3.42257630
Si       0.94416095       5.57154460       6.86564380
Si       2.86143012       4.22990159       6.86564380
Si       0.94416095       9.13062468       0.57614021
Si       2.86143012       0.67082151       0.57614021
Si       0.25584172       2.01865399       2.23041920
Si       3.54974934       7.78279220       2.23041920
Si       0.25584172       2.88206910       8.51992278
Si       3.54974934       6.91937709       8.51992278
Si       1.90279553       4.90072310       2.29862599
Si       1.90279553      -0.00000000       8.58812957
22
Lattice="3.7972125751280035 -7.712260925849139e-32 -1.6613509757546163e-19 2.3860098640461503e-34 9.876871618651416 1.8443847878608254e-12 1.5174148025449787e-19 -2.3486715455916722e-12 12.576797171522724" Properties=species:S:1:pos:R:3 unique_starting_index=32 config_type=initial n_minim_iter=16 stress="0.0016425619655050813 8.705107477952337e-17 -1.7730053791854175e-18 8.705107477952337e-17 0.003276034409516783 1.1155292713731571e-15 -1.7730053791854175e-18 1.1155292713731571e-15 -0.001228249325902602" pbc="T T T"
Si       0.42366773       1.19598507       6.78244359
Si       3.37354484       8.68088655       6.78244359
Si       0.42366773       3.74245074       0.49404500
Si       3.37354484       6.13442088       0.49404500
Si       2.31920224       2.69210102      12.00381711
Si       1.47801034       7.18477060      12.00381711
Si       2.31920224       2.24633479       5.71541852
Si       1.47801034       7.63053683       5.71541852
Si       2.18450325       2.12915048       9.71185855
Si       1.61270933       7.74772114       9.71185855
Si       2.18450325       2.80928533       3.42345997
Si       1.61270933       7.06758629       3.42345997
Si       0.94485815       5.61710020       6.86152219
Si       2.85235442       4.25977142       6.86152219
Si       0.94485815       9.19820723       0.57312361
Si       2.85235442       0.67866439       0.57312361
Si       0.24181688       2.06683063       2.21906614
Si       3.55539570       7.81004099       2.21906614
Si       0.24181688       2.87160518       8.50746473
Si       3.55539570       7.00526644       8.50746473
Si       1.89860629       4.93843581       2.32684623
Si       1.89860629      -0.00000000       8.61524482
22
Lattice="3.7955468644852464 -7.52261651293634e-32 -1.7350696331611905e-19 1.4982743264272205e-34 9.826426305428441 1.8349471605818053e-12 1.2988666518836906e-19 -2.357506587122873e-12 12.624007247985524" Properties=species:S:1:pos:R:3 unique_starting_index=32 config_type=initial n_minim_iter=17 stress="0.001061344360115654 -5.4248641849429627e-17 -8.430437796560062e-17 -5.4248641849429627e-17 0.0010279529997664666 6.278492789087928e-16 -8.430437796560062e-17 6.278492789087928e-16 -0.00045264852128077413" pbc="T T T"
Si       0.41808242       1.18216427       6.80551308
Si       3.37746444       8.64426204       6.80551308
Si       0.41808242       3.73104888       0.49350946
Si       3.37746444       6.09537742       0.49350946
Si       2.32341889       2.68693032      12.04237413
Si       1.47212798       7.13949599      12.04237413
Si       2.32341889       2.22628284       5.73037051
Si       1.47212798       7.60014347       5.73037051
Si       2.16767694       2.12141135       9.74644881
Si       1.62786993       7.70501495       9.74644881
Si       2.16767694       2.79180180       3.43444519
Si       1.62786993       7.03462451       3.43444519
Si       0.94771978       5.58931397       6.88725769
Si       2.84782709       4.23711233       6.88725769
Si       0.94771978       9.15032549       0.57525406
Si       2.84782709       0.67610082       0.57525406
Si       0.23712235       2.05957893       2.22862583
Si       3.55842452       7.76684738       2.22862583
Si       0.23712235       2.85363423       8.54062945
Si       3.55842452       6.97279208       8.54062945
Si       1.89777343       4.91321315       2.35467840
Si       1.89777343      -0.00000000       8.66668202
22
Lattice="3.7935288312420457 -7.321818450402045e-32 -1.823665588644353e-19 8.717090966848706e-35 9.791912717452075 1.828586064935612e-12 1.03128628140848e-19 -2.365603595573661e-12 12.667904400127846" Properties=species:S:1:pos:R:3 unique_starting_index=32 config_type=initial n_minim_iter=18 stress="-6.623971198163358e-05 -2.9167609330234184e-17 -8.969285022975335e-17 -2.9167609330234184e-17 -0.00038880976040371644 2.0802030367966087e-16 -8.969285022975335e-17 2.0802030367966087e-16 0.0003535239134328069" pbc="T T T"
Si       0.42683237       1.18260480       6.82286366
Si       3.36669646       8.60930792       6.82286366
Si       0.42683237       3.71335156       0.48891146
Si       3.36669646       6.07856115       0.48891146
Si       2.33648505       2.67650456      12.07703161
Si       1.45704378       7.11540815      12.07703161
Si       2.33648505       2.21945179       5.74307941
Si       1.45704378       7.57246092       5.74307941
Si       2.15539582       2.11384723       9.77798787
Si       1.63813301       7.67806548       9.77798787
Si       2.15539582       2.78210912       3.44403567
Si       1.63813301       7.00980359       3.44403567
Si       0.94754335       5.56791397       6.91734706
Si       2.84598548       4.22399875       6.91734706
Si       0.94754335       9.11995511       0.58339486
Si       2.84598548       0.67195761       0.58339486
Si       0.22964824       2.05411808       2.24158848
Si       3.56388059       7.73779463       2.24158848
Si       0.22964824       2.84183828       8.57554068
Si       3.56388059       6.95007444       8.57554068
Si       1.89676442       4.89595636       2.37192563
Si       1.89676442      -0.00000000       8.70587783
22
Lattice="3.7881658017440296 -6.922690227142677e-32 -1.9903379737117456e-19 2.139473882721233e-35 9.709473266394035 1.8131929026459009e-12 5.433183839267319e-20 -2.385972035003507e-12 12.776997391779428" Properties=species:S:1:pos:R:3 unique_starting_index=32 config_type=initial n_minim_iter=19 stress="-0.002466223498554568 -3.384164028652249e-17 -3.889599213354606e-17 -3.384164028652249e-17 -0.0035028647624482123 -5.684752564742975e-16 -3.889599213354606e-17 -5.684752564742975e-16 0.002047749497334298" pbc="T T T"
Si       0.44092982       1.16842864       6.86563202
Si       3.34723598       8.54104463       6.86563202
Si       0.44092982       3.68630799       0.47713332
Si       3.34723598       6.02316527       0.47713332
Si       2.35496406       2.66454342      12.16413368
Si       1.43320175       7.04492984      12.16413368
Si       2.35496406       2.19019321       5.77563498
Si       1.43320175       7.51928006       5.77563498
Si       2.11778938       2.10958186       9.86865788
Si       1.67037642       7.59989141       9.86865788
Si       2.11778938       2.74515478       3.48015918
Si       1.67037642       6.96431849       3.48015918
Si       0.94216557       5.51964326       6.97773295
Si       2.84600023       4.18983000       6.97773295
Si       0.94216557       9.04456664       0.58923426
Si       2.84600023       0.66490663       0.58923426
Si       0.18916602       2.05129530       2.26589673
Si       3.59899979       7.65817797       2.26589673
Si       0.18916602       2.80344134       8.65439542
Si       3.59899979       6.90603193       8.65439542
Si       1.89408290       4.85473663       2.43356639
Si       1.89408290      -0.00000000       8.82206509
22
Lattice="3.7939144484113383 -6.858802657137455e-32 -2.0708745309971906e-19 6.80144936450313e-36 9.788219759306916 1.8277248484924623e-12 2.475254602364823e-20 -2.3739428324355745e-12 12.711463012888995" Properties=species:S:1:pos:R:3 unique_starting_index=32 config_type=initial n_minim_iter=20 stress="0.0001356635761610436 -2.7782112682061523e-18 -6.376445361016847e-17 -2.7782112682061523e-18 0.0013264684161257436 8.252811968663271e-16 -6.376445361016847e-17 8.252811968663271e-16 -0.0004317143344516534" pbc="T T T"
Si       0.45748194       1.16701795       6.82562992
Si       3.33643250       8.62120181       6.82562992
Si       0.45748194       3.72709193       0.46989841
Si       3.33643250       6.06112783       0.46989841
Si       2.36388784       2.69864485      12.10186919
Si       1.43002661       7.08957491      12.10186919
Si       2.36388784       2.19546503       5.74613768
Si       1.43002661       7.59275473       5.74613768
Si       2.09506428       2.14497963       9.83509565
Si       1.69885016       7.64324013       9.83509565
Si       2.09506428       2.74913025       3.47936415
Si       1.69885016       7.03908951       3.47936415
Si       0.93501594       5.56804533       6.92650342
Si       2.85889851       4.22017443       6.92650342
Si       0.93501594       9.11428431       0.57077191
Si       2.85889851       0.67393545       0.57077191
Si       0.14115232       2.09500869       2.24185852
Si       3.65276213       7.69321107       2.24185852
Si       0.14115232       2.79910119       8.59759003
Si       3.65276213       6.98911857       8.59759003
Si       1.89695722       4.89410988       2.45200939
Si       1.89695722      -0.00000000       8.80774090
22
Lattice="3.7990225949709346 -6.704049620975753e-32 -2.1143874728415154e-19 3.74814924119059e-36 9.720177385087405 1.8155063292576522e-12 1.271410319583359e-20 -2.3805782788248417e-12 12.750103286482107" Properties=species:S:1:pos:R:3 unique_starting_index=32 config_type=initial n_minim_iter=21 stress="0.000863537869766085 -5.379269979843613e-17 3.3702911336877286e-17 -5.379269979843613e-17 -0.002220273426195239 3.0855496058537487e-16 3.3702911336877286e-17 3.0855496058537487e-16 -0.00034153078068448406" pbc="T T T"
Si       0.43141798       1.14083891       6.84823426
Si       3.36760462       8.57933848       6.84823426
Si       0.43141798       3.71924979       0.47318262
Si       3.36760462       6.00092760       0.47318262
Si       2.33805274       2.69881242      12.13903258
Si       1.46096985       7.02136497      12.13903258
Si       2.33805274       2.16127627       5.76398093
Si       1.46096985       7.55890111       5.76398093
Si       2.06914701       2.15619413       9.87017703
Si       1.72987559       7.56398325       9.87017703
Si       2.06914701       2.70389456       3.49512539
Si       1.72987559       7.01628283       3.49512539
Si       0.94049072       5.53315944       6.93208892
Si       2.85853187       4.18701795       6.93208892
Si       0.94049072       9.04710664       0.55703728
Si       2.85853187       0.67307075       0.55703728
Si       0.11726929       2.07890778       2.24327006
Si       3.68175331       7.64126960       2.24327006
Si       0.11726929       2.78118091       8.61832170
Si       3.68175331       6.93899648       8.61832170
Si       1.89951130       4.86008869       2.48637557
Si       1.89951130      -0.00000000       8.86142721
