8
Lattice="3.54177479776982 -4.3870526873352484e-32 -5.786721726241212e-65 1.0343128232814113e-31 8.350260075707888 -6.200219168296335e-32 1.4663687157157344e-63 1.005256591191913e-31 13.538479449555561" Properties=species:S:1:pos:R:3 unique_starting_index=54 config_type=initial n_minim_iter=1 energy=-1297.0363389479805 free_energy=-1297.0363389479805 pbc="T T T"
Si       0.85535614       0.83420110       1.85157064
Si       2.68641866       7.51605898       1.85157064
Si       0.91553126       5.00933114       8.62081037
Si       2.62624354       3.34092894       8.62081037
Si       0.95159506       7.27820462       0.41040465
Si       2.59017974       1.07205546       0.41040465
Si       0.81929234       3.10307458       7.17964438
Si       2.72248245       5.24718550       7.17964438
8
Lattice="3.5301684598830216 -4.410153206940454e-32 -6.216819542264298e-65 1.023633756892361e-31 8.33538137505868 -6.267659306053309e-32 1.4201040474071495e-63 9.906898202060216e-32 13.513679883317653" Properties=species:S:1:pos:R:3 unique_starting_index=54 config_type=initial n_minim_iter=2 stress="-0.0009664724299871093 1.1918357771685583e-17 -9.876706440371947e-18 1.1918357771685583e-17 -1.879609664717825e-05 -6.016763923392663e-17 -9.876706440371947e-18 -6.016763923392663e-17 -0.00017015732534661604" pbc="T T T"
Si       0.85112606       0.83331872       1.84804969
Si       2.67904240       7.50206266       1.84804969
Si       0.91395817       5.00100941       8.60488963
Si       2.61621029       3.33437197       8.60488963
Si       0.94811924       7.26607718       0.40978216
Si       2.58204922       1.06930419       0.40978216
Si       0.81696499       3.09838649       7.16662210
Si       2.71320347       5.23699488       7.16662210
8
Lattice="3.544960743698451 -4.62566233218147e-32 -7.323118596305467e-65 9.687116924070743e-32 8.267428715585753 -6.438016667262118e-32 1.2707670652654784e-63 9.495946595910042e-32 13.442245685699406" Properties=species:S:1:pos:R:3 unique_starting_index=54 config_type=initial n_minim_iter=3 stress="0.000985472983428878 -1.5993822439546037e-17 -8.1020395866927415e-19 -1.5993822439546037e-17 -0.0018873744942832756 -4.2271510887092565e-17 -8.1020395866927415e-19 -4.2271510887092565e-17 -0.001052271972734094" pbc="T T T"
Si       0.83939504       0.83498783       1.83955348
Si       2.70556571       7.43244088       1.83955348
Si       0.93308534       4.96870219       8.56067632
Si       2.61187541       3.29872653       8.56067632
Si       0.94799422       7.21484069       0.40634332
Si       2.59696653       1.05258803       0.40634332
Si       0.82448616       3.08112633       7.12746616
Si       2.72047459       5.18630239       7.12746616
8
Lattice="3.536832010628349 -4.584057502642226e-32 -7.976232406972847e-65 9.793767286188973e-32 8.292948150094837 -6.465934970599421e-32 1.2538279116579813e-63 9.49057667094556e-32 13.454925035622468" Properties=species:S:1:pos:R:3 unique_starting_index=54 config_type=initial n_minim_iter=4 stress="-0.00022553884335353496 -2.429929229373773e-17 -1.0743030095132963e-17 -2.429929229373773e-17 -0.0005982287447900221 -3.333680042614091e-17 -1.0743030095132963e-17 -3.333680042614091e-17 -1.9372537994149122e-05" pbc="T T T"
Si       0.82293898       0.84822057       1.84385671
Si       2.71389304       7.44472758       1.84385671
Si       0.94547703       4.99469465       8.57131922
Si       2.59135498       3.29825350       8.57131922
Si       0.94319722       7.24420655       0.40415853
Si       2.59363479       1.04874160       0.40415853
Si       0.82521878       3.09773247       7.13162104
Si       2.71161323       5.19521568       7.13162104
8
Lattice="3.5408830244618947 -4.482709474416075e-32 -1.30923980175741e-64 1.0109020982381423e-31 8.344239464629437 -7.084972842432117e-32 9.559616837297788e-64 8.464834882788488e-32 13.347679394094879" Properties=species:S:1:pos:R:3 unique_starting_index=54 config_type=initial n_minim_iter=5 stress="-0.0009788743444815225 -1.7849998878152577e-17 3.1670771789723645e-17 -1.7849998878152577e-17 0.0017902152448223084 -3.7019613247543635e-17 3.1670771789723645e-17 -3.7019613247543635e-17 0.001521973655494223" pbc="T T T"
Si       0.78734006       0.88769122       1.83557665
Si       2.75354297       7.45654824       1.83557665
Si       0.98310145       5.05981095       8.50941634
Si       2.55778157       3.28442851       8.50941634
Si       0.94542375       7.31273197       0.39452025
Si       2.59545927       1.03150749       0.39452025
Si       0.82501776       3.14061224       7.06835995
Si       2.71586527       5.20362722       7.06835995
8
Lattice="3.6753232864996006 -5.250184717066641e-32 -3.8381230407372695e-64 8.51510688649895e-32 8.21705978545955 -4.880679280404562e-32 -5.153025195494999e-68 1.0658649168634401e-31 11.963520880094547" Properties=species:S:1:pos:R:3 unique_starting_index=54 config_type=initial n_minim_iter=6 stress="-0.002007852117449881 1.4135040478925384e-17 -1.4211861351093457e-17 1.4135040478925384e-17 -0.001832702367535719 -5.56567218857687e-17 -1.4211861351093457e-17 -5.56567218857687e-17 -0.004311449595893083" pbc="T T T"
Si       0.65528501       1.07105786       1.67380829
Si       3.02003828       7.14600193       1.67380829
Si       1.18237663       5.17958775       7.65556873
Si       2.49294665       3.03747204       7.65556873
Si       1.07872028       7.34893658       0.32502687
Si       2.59660300       0.86812320       0.32502687
Si       0.75894136       3.24040669       6.30678731
Si       2.91638193       4.97665310       6.30678731
8
Lattice="3.711772591348266 -5.518006927827813e-32 -3.660052161070619e-64 7.953269725275115e-32 8.198846141834219 -4.54409808243101e-32 6.540556613222691e-67 1.1048126042424707e-31 11.742099554394038" Properties=species:S:1:pos:R:3 unique_starting_index=54 config_type=initial n_minim_iter=7 stress="-0.0007286412976825307 6.027429015873884e-17 3.681702775160079e-17 6.027429015873884e-17 -0.004067648814412195 -1.8563859984456936e-17 3.681702775160079e-17 -1.8563859984456936e-17 -0.003470730289300286" pbc="T T T"
Si       0.65079432       1.09733918       1.64673587
Si       3.06097827       7.10150696       1.64673587
Si       1.20509198       5.19676225       7.51778565
Si       2.50668061       3.00208389       7.51778565
Si       1.12427894       7.35400625       0.31510476
Si       2.58749365       0.84483989       0.31510476
Si       0.73160736       3.25458318       6.18615454
Si       2.98016523       4.94426296       6.18615454
8
Lattice="3.712450012305633 -5.643152160179079e-32 -3.708416873980601e-64 7.694677808659981e-32 8.222868374557324 -4.4125720892063563e-32 -6.033613095677348e-66 1.1344050028503269e-31 11.830706454477735" Properties=species:S:1:pos:R:3 unique_starting_index=54 config_type=initial n_minim_iter=8 stress="0.0019661533150672154 1.721486514748947e-17 2.1432122848241634e-17 1.721486514748947e-17 -0.004313821919373828 -3.150935138602983e-17 2.1432122848241634e-17 -3.150935138602983e-17 -0.00206862794323933" pbc="T T T"
Si       0.68362637       1.07633924       1.65512944
Si       3.02882365       7.14652913       1.65512944
Si       1.17259864       5.18777343       7.57048267
Si       2.53985137       3.03509495       7.57048267
Si       1.13319636       7.35670033       0.32151541
Si       2.57925365       0.86616805       0.32151541
Si       0.72302864       3.24526614       6.23686864
Si       2.98942137       4.97760223       6.23686864
8
Lattice="3.7174274124891977 -5.38349651029468e-32 -4.003860764014331e-64 8.583243384267188e-32 8.399564698710288 -4.116254570263038e-32 7.121187675324371e-65 1.2059040175368618e-31 11.7662401754752" Properties=species:S:1:pos:R:3 unique_starting_index=54 config_type=initial n_minim_iter=9 stress="0.002066771615152926 3.535567277179556e-17 -4.240036611788516e-18 3.535567277179556e-17 0.0001567454696425796 -2.5610198866749346e-17 -4.240036611788516e-18 -2.5610198866749346e-17 0.0011001293456111107" pbc="T T T"
Si       0.68908855       1.10083829       1.64550647
Si       3.02833886       7.29872640       1.64550647
Si       1.16962516       5.30062064       7.52862655
Si       2.54780226       3.09894405       7.52862655
Si       1.17306081       7.50872154       0.32036752
Si       2.54436661       0.89084316       0.32036752
Si       0.68565290       3.30893919       6.20348761
Si       3.03177451       5.09062551       6.20348761
8
Lattice="3.67826814963068 -5.151787738669445e-32 -3.156551141629011e-64 9.34228614568058e-32 8.603656236420521 -1.861988866771808e-31 -3.052109201623264e-63 -1.1036398052577265e-31 11.843532971327917" Properties=species:S:1:pos:R:3 unique_starting_index=54 config_type=initial n_minim_iter=10 stress="-0.0054949113789333655 2.7399601907456218e-17 1.6050983009300364e-17 2.7399601907456218e-17 0.005782911306632083 -8.849330886327076e-18 1.6050983009300364e-17 -8.849330886327076e-18 0.0016883023903737238" pbc="T T T"
Si       0.66561465       1.08749819       1.64998178
Si       3.01265350       7.51615804       1.64998178
Si       1.17351942       5.38932631       7.57174827
Si       2.50474873       3.21432993       7.57174827
Si       1.20888309       7.64628580       0.32880609
Si       2.46938506       0.95737044       0.32880609
Si       0.63025098       3.34445768       6.25057258
Si       3.04801717       5.25919856       6.25057258
8
Lattice="3.6971251258127555 -6.116297801956296e-32 -3.244544835037246e-61 7.392694186290723e-32 8.779987212431024 6.546270738828317e-29 7.127405241385257e-61 1.0621483220103596e-28 11.787694344118108" Properties=species:S:1:pos:R:3 unique_starting_index=54 config_type=initial n_minim_iter=11 stress="-0.008249991597303977 -2.045561062582044e-17 -8.900366751021873e-17 -2.045561062582044e-17 0.010244217422707012 -1.7735449638344317e-17 -8.900366751021873e-17 -1.7735449638344317e-17 0.002355506241383691" pbc="T T T"
Si       0.55758383       1.07294060       1.63668699
Si       3.13954130       7.70704661       1.63668699
Si       1.29097874       5.46293421       7.53053416
Si       2.40614639       3.31705300       7.53053416
Si       1.32741072       7.74755720       0.33277151
Si       2.36971441       1.03243001       0.33277151
Si       0.52115185       3.35756359       6.22661868
Si       3.17597328       5.42242362       6.22661868
8
Lattice="3.7222098858828336 -6.839805599386864e-32 2.9820599414808263e-59 5.530946811591266e-32 8.67773316143846 -4.3665345384895944e-27 -2.535127374118647e-59 -7.090829375430823e-27 11.858545245307145" Properties=species:S:1:pos:R:3 unique_starting_index=54 config_type=initial n_minim_iter=12 stress="-0.005350107146060193 -8.405618265927734e-17 -4.746275831191953e-17 -8.405618265927734e-17 0.004981051768297667 -1.065194728527049e-17 -4.746275831191953e-17 -1.065194728527049e-17 0.0035879209463274154" pbc="T T T"
Si       0.48381324       1.02867082       1.64264964
Si       3.23839665       7.64906234       1.64264964
Si       1.37729171       5.36753740       7.57192227
Si       2.34491818       3.31019576       7.57192227
Si       1.38538162       7.62259150       0.33864645
Si       2.33682826       1.05514166       0.33864645
Si       0.47572332       3.28372492       6.26791907
Si       3.24648657       5.39400824       6.26791907
8
Lattice="3.766479583357148 -7.004150337328298e-32 -6.473853326870402e-58 4.939315832032728e-32 8.5457474690571 9.345305829396778e-26 5.12497515136188e-58 1.514403872912039e-25 11.613820633095186" Properties=species:S:1:pos:R:3 unique_starting_index=54 config_type=initial n_minim_iter=13 stress="-0.0022321923266802293 -4.7073740540505526e-17 -9.774854798355761e-17 -4.7073740540505526e-17 0.0027455563386844704 -6.088401773377687e-18 -9.774854798355761e-17 -6.088401773377687e-18 0.0021252747167952216" pbc="T T T"
Si       0.49778453       1.03773697       1.61005951
Si       3.26869505       7.50801050       1.61005951
Si       1.38545526       5.31061070       7.41696982
Si       2.38102432       3.23513677       7.41696982
Si       1.38752882       7.53275083       0.33034860
Si       2.37895076       1.01299664       0.33034860
Si       0.49571097       3.25987709       6.13725892
Si       3.27076861       5.28587038       6.13725892
8
Lattice="3.791851691792346 -7.091912474232726e-32 1.5340250940583476e-56 4.4045665083111655e-32 8.363306573445355 -2.241765918783378e-24 -1.300923710861721e-56 -3.639496371705876e-24 11.558968990695453" Properties=species:S:1:pos:R:3 unique_starting_index=54 config_type=initial n_minim_iter=14 stress="-0.001966250571632282 -1.1963516890194966e-16 -5.887110368434548e-17 -1.1963516890194966e-16 -0.0015936839889261496 1.1357769199552182e-18 -5.887110368434548e-17 1.1357769199552182e-18 -0.00025527225834642934" pbc="T T T"
Si       0.54033836       1.00047051       1.59765140
Si       3.25151333       7.36283606       1.59765140
Si       1.35558748       5.18212380       7.37713590
Si       2.43626421       3.18118277       7.37713590
Si       1.35621190       7.37135810       0.33359223
Si       2.43563979       0.99194847       0.33359223
Si       0.53971395       3.18970482       6.11307673
Si       3.25213775       5.17360176       6.11307673
8
Lattice="3.810672766515526 -7.063289140428673e-32 -4.406352044805523e-55 4.5988205119939725e-32 8.41596399372278 6.522304761956267e-23 3.868203271137146e-55 1.0565473751571457e-22 11.509051619767598" Properties=species:S:1:pos:R:3 unique_starting_index=54 config_type=initial n_minim_iter=15 stress="0.0010949422324121531 -1.789707807097101e-16 -5.132250329175511e-17 -1.789707807097101e-16 -0.0004566545185822722 -4.0606815791278766e-17 -5.132250329175511e-17 -4.0606815791278766e-17 -1.8160889880083519e-06" pbc="T T T"
Si       0.52623227       1.00127052       1.58850548
Si       3.28444050       7.41469347       1.58850548
Si       1.37910411       5.20925252       7.34303129
Si       2.43156865       3.20671147       7.34303129
Si       1.38314256       7.40938981       0.33439809
Si       2.42753021       1.00657418       0.33439809
Si       0.52219382       3.20140781       6.08892390
Si       3.28847894       5.21455618       6.08892390
8
Lattice="3.804187103622481 -7.029245117818842e-32 1.1315599015353378e-53 4.7003399972382863e-32 8.430944658224305 -1.696167820488783e-21 -1.044786960645991e-53 -2.750374506468947e-21 11.54177334145424" Properties=species:S:1:pos:R:3 unique_starting_index=54 config_type=initial n_minim_iter=16 stress="0.00035523342132065517 -1.306134016785858e-16 -4.0451165445233664e-17 -1.306134016785858e-16 7.907064789479058e-05 -4.543726832217164e-17 -4.0451165445233664e-17 -4.543726832217164e-17 5.1381938878573914e-05" pbc="T T T"
Si       0.52689700       1.00331097       1.59232380
Si       3.27729011       7.42763369       1.59232380
Si       1.37519656       5.21878330       7.36321047
Si       2.42899055       3.21216136       7.36321047
Si       1.37489735       7.42369941       0.33604683
Si       2.42928975       1.00724525       0.33604683
Si       0.52719620       3.20822708       6.10693350
Si       3.27699090       5.22271758       6.10693350
8
Lattice="3.7954895128655552 -6.972438190107667e-32 -2.0222633115163997e-51 4.869694011738559e-32 8.454796188670308 3.1016219064561085e-19 2.029973105004095e-51 5.029413055970121e-19 11.596008167249334" Properties=species:S:1:pos:R:3 unique_starting_index=54 config_type=initial n_minim_iter=17 stress="-0.0018107407691012039 -1.1740200535443723e-16 5.3106879169224465e-17 -1.1740200535443723e-16 0.0001463332510443286 -2.271214144245625e-17 5.3106879169224465e-17 -2.271214144245625e-17 -0.0011730064410490019" pbc="T T T"
Si       0.53294174       1.00212931       1.59259053
Si       3.26254777       7.45266687       1.59259053
Si       1.36480301       5.22952741       7.39059461
Si       2.43068650       3.22526878       7.39059461
Si       1.36407893       7.44695565       0.34484152
Si       2.43141059       1.00784054       0.34484152
Si       0.53366583       3.21955755       6.14284560
Si       3.26182368       5.23523864       6.14284560
8
Lattice="3.7978608284095636 -6.910855220390911e-32 6.312119352186974e-50 5.235037779998942e-32 8.56682694640131 -9.654753717950564e-18 -6.122769144662952e-50 -1.575573796156051e-17 11.966124904113405" Properties=species:S:1:pos:R:3 unique_starting_index=54 config_type=initial n_minim_iter=18 stress="-0.0017775261562265857 -1.2689884488689538e-16 1.4254649059298246e-16 -1.2689884488689538e-16 0.0008689904326748068 -1.0729368626672895e-17 1.4254649059298246e-16 -1.0729368626672895e-17 -0.0017795180291129658" pbc="T T T"
Si       0.52441087       1.00302666       1.61284231
Si       3.27344996       7.56380029       1.61284231
Si       1.37451954       5.28644013       7.59590477
Si       2.42334129       3.28038682       7.59590477
Si       1.36499682       7.55455831       0.38642791
Si       2.43286400       1.01226864       0.38642791
Si       0.53393359       3.27114483       6.36949037
Si       3.26392724       5.29568211       6.36949037
8
Lattice="3.7993597290495154 -7.022679423808339e-32 -8.059756622237282e-51 5.061361497116715e-32 8.61270392784386 1.2814358114638739e-18 6.673654986889988e-51 2.757014858191838e-18 12.189368942624885" Properties=species:S:1:pos:R:3 unique_starting_index=54 config_type=initial n_minim_iter=19 stress="-0.001861564940507994 -1.2859410195081179e-16 1.3074255589980057e-16 -1.2859410195081179e-16 0.0009129195516501968 -5.027556204516315e-18 1.3074255589980057e-16 -5.027556204516315e-18 -0.0013974334171939396" pbc="T T T"
Si       0.52261184       1.00270381       1.62716834
Si       3.27674789       7.61000012       1.62716834
Si       1.37706803       5.30905577       7.72185281
Si       2.42229170       3.30364815       7.72185281
Si       1.36786907       7.60078093       0.40940094
Si       2.43149066       1.01192300       0.40940094
Si       0.53181080       3.29442897       6.50408541
Si       3.26754893       5.31827496       6.50408541
8
Lattice="3.8108997008219627 -7.078820732066889e-32 7.774609119079955e-51 4.9139669493077197e-32 8.59807472393278 -8.744169915554094e-19 -2.6481870959317437e-51 -7.754142705665012e-19 12.285524496883939" Properties=species:S:1:pos:R:3 unique_starting_index=54 config_type=initial n_minim_iter=20 stress="0.00024708383526028205 -1.9305712469996235e-16 1.9219526253612323e-16 -1.9305712469996235e-16 0.00033398209245579777 -2.001243944434431e-17 1.9219526253612323e-16 -2.001243944434431e-17 -0.00030885792585277753" pbc="T T T"
Si       0.52197262       1.00339935       1.63675257
Si       3.28892708       7.59467537       1.63675257
Si       1.38347723       5.30243671       7.77951482
Si       2.42742247       3.29563801       7.77951482
Si       1.38139391       7.59293655       0.41588214
Si       2.42950579       1.00513818       0.41588214
Si       0.52405594       3.29389918       6.55864439
Si       3.28684376       5.30417554       6.55864439
8
Lattice="3.8078021004412133 -7.110874462005578e-32 2.0653345732737983e-51 4.79249184949005e-32 8.576827431317723 -8.689718717576683e-20 1.0456438957738633e-51 5.042763141172094e-19 12.28237324957733" Properties=species:S:1:pos:R:3 unique_starting_index=54 config_type=initial n_minim_iter=21 stress="6.711692057857584e-05 -1.965102672952724e-16 2.0688933070875508e-16 -1.965102672952724e-16 2.1960060384919873e-05 -2.4667574046043876e-17 2.0688933070875508e-16 -2.4667574046043876e-17 -8.971934949019861e-05" pbc="T T T"
Si       0.52459262       1.00242481       1.63934995
Si       3.28320948       7.57440262       1.63934995
Si       1.37930843       5.29083852       7.78053658
Si       2.42849367       3.28598891       7.78053658
Si       1.37939968       7.57449703       0.41275826
Si       2.42840242       1.00233040       0.41275826
Si       0.52450137       3.28608332       6.55394488
Si       3.28330073       5.29074411       6.55394488
