6
Lattice="3.8399003313644644 -0.9102022992176851 -0.421434066278691 -0.807532432801613 5.536926375839268 -0.6511927489770228 -0.24925079511291837 -3.5237792511429977 5.819337922902902" Properties=species:S:1:pos:R:3 unique_starting_index=70 config_type=initial n_minim_iter=1 energy=-977.9094247663776 free_energy=-977.9094247663776 pbc="T T T"
Si       1.80981595      -2.05038143       2.41131516
Si       3.11982579      -0.27202667       1.55911055
Si       1.54598947       1.28852866       2.45478122
Si       0.87284002       1.73305857       4.68089407
Si      -0.43716982      -0.04529619       5.53309868
Si       1.13666650      -1.60585152       4.63742801
6
Lattice="3.8423296568865712 -0.9146297167146107 -0.4089460424758574 -0.8182814149686815 5.531533219948996 -0.6553642268438584 -0.22556156112657166 -3.5206637804592966 5.820431398251899" Properties=species:S:1:pos:R:3 unique_starting_index=70 config_type=initial n_minim_iter=2 stress="-0.00026154400916594855 -0.0010470669931148965 0.001354535870701975 -0.0010470669931148965 -0.0013855069828444468 0.0005829030753862243 0.001354535870701975 0.0005829030753862243 0.0003882447015026817" pbc="T T T"
Si       1.82109587      -2.05181788       2.41744968
Si       3.12869155      -0.27790639       1.56749741
Si       1.54841140       1.28563439       2.45891661
Si       0.88647769       1.72904561       4.68461030
Si      -0.42111800      -0.04486588       5.53456256
Si       1.15916215      -1.60840665       4.64314337
6
Lattice="3.8450510208905846 -0.9131980031388901 -0.40685674568338154 -0.8160770680890327 5.538782136271931 -0.661302702715292 -0.22637549166242715 -3.5316211401545434 5.821411438935625" Properties=species:S:1:pos:R:3 unique_starting_index=70 config_type=initial n_minim_iter=3 stress="0.00045325579404855413 -0.0004932785429465186 0.0005502556375564047 -0.0004932785429465186 0.0008193929321520882 -0.000305822472922448 0.0005502556375564047 -0.000305822472922448 -0.000493590128367429" pbc="T T T"
Si       1.82099161      -2.05684504       2.41775237
Si       3.13272839      -0.27909481       1.56502779
Si       1.54652709       1.28678590       2.45518834
Si       0.89036566       1.72737965       4.68183347
Si      -0.42137112      -0.05037058       5.53455806
Si       1.16483018      -1.61625128       4.64439751
6
Lattice="3.8429778159623997 -0.9083642868480613 -0.4083606540738199 -0.8103057040726195 5.530904427193606 -0.6615059946997015 -0.23142139877612 -3.527276336519994 5.826008888034111" Properties=species:S:1:pos:R:3 unique_starting_index=70 config_type=initial n_minim_iter=4 stress="-0.0003713679999326512 0.00013856026911416064 -0.0005167072607683449 0.00013856026911416064 -0.0008915753249250234 0.00016750092542905634 -0.0005167072607683449 0.00016750092542905634 0.00016585660286893452" pbc="T T T"
Si       1.81683385      -2.05289929       2.41746437
Si       3.13096044      -0.27658677       1.56269177
Si       1.54265993       1.28735751       2.45446277
Si       0.89114192       1.72648590       4.68686474
Si      -0.42298468      -0.04982662       5.54163734
Si       1.16531583      -1.61377090       4.64986634
6
Lattice="3.845089825989809 -0.9088654139155132 -0.4031933261275983 -0.8106465124584136 5.539477865234023 -0.6645126013990343 -0.22484278050203269 -3.5347159972621625 5.827724379020646" Properties=species:S:1:pos:R:3 unique_starting_index=70 config_type=initial n_minim_iter=5 stress="0.0005628045638955493 0.00019018366596618125 7.771271875509054e-05 0.00019018366596618125 0.0012247412458087018 -0.00021166807939133726 7.771271875509054e-05 -0.00021166807939133726 0.00047998008504181514" pbc="T T T"
Si       1.82026917      -2.05551715       2.41955606
Si       3.13344323      -0.27777907       1.56527063
Si       1.54518657       1.28773506       2.45424750
Si       0.89870794       1.72673784       4.68934069
Si      -0.41446612      -0.05100025       5.54362612
Si       1.17379054      -1.61651438       4.65464926
6
Lattice="3.8437211099170767 -0.908749200310734 -0.4019816381824026 -0.811025653819512 5.536691198693928 -0.664225821392661 -0.22323040287162246 -3.5330364041731044 5.822218739182355" Properties=species:S:1:pos:R:3 unique_starting_index=70 config_type=initial n_minim_iter=6 stress="-0.00037482342472294663 2.3680114550427558e-05 0.00011716307562474013 2.3680114550427558e-05 0.00037102993992096874 -0.0002825584604193765 0.00011716307562474013 -0.0002825584604193765 -0.0009287798405876569" pbc="T T T"
Si       1.82014003      -2.05399736       2.41751229
Si       3.13138497      -0.27829884       1.56382699
Si       1.54425291       1.28592281       2.45102324
Si       0.89935147       1.72490415       4.68515823
Si      -0.41189347      -0.05079437       5.53884353
Si       1.17523859      -1.61501602       4.65164728
6
Lattice="3.845559752628606 -0.908541404445347 -0.4028363234372322 -0.811569784666032 5.533588256345237 -0.6630096277891441 -0.22371679714030812 -3.5295232237711565 5.824826031585275" Properties=species:S:1:pos:R:3 unique_starting_index=70 config_type=initial n_minim_iter=7 stress="-9.476830642634958e-05 -7.746741182981798e-05 9.576974796160812e-05 -7.746741182981798e-05 -0.0002672046750713062 0.00013582113302755411 9.576974796160812e-05 0.00013582113302755411 -5.194890463875952e-07" pbc="T T T"
Si       1.82080854      -2.05177681       2.41866197
Si       3.13163381      -0.27803787       1.56405670
Si       1.54392701       1.28498998       2.45156576
Si       0.89929504       1.72471763       4.68802823
Si      -0.41153024      -0.04902131       5.54263350
Si       1.17617657      -1.61204916       4.65512444
6
Lattice="3.8495606746188256 -0.9070656207666119 -0.4040861196285811 -0.8112009362173048 5.529309527093661 -0.6640618423051614 -0.22616437145566762 -3.5276253178999415 5.830389501036512" Properties=species:S:1:pos:R:3 unique_starting_index=70 config_type=initial n_minim_iter=8 stress="0.0002913973685197066 0.00014263069345539186 7.447814577151082e-05 0.00014263069345539186 -0.0010542261965938466 0.00016117768161499224 7.447814577151082e-05 0.00016117768161499224 0.0010977261514831416" pbc="T T T"
Si       1.82142743      -2.04866814       2.42442315
Si       3.13148449      -0.27777684       1.56333693
Si       1.54081762       1.28103539       2.44886561
Si       0.89961184       1.72146888       4.68777088
Si      -0.41044522      -0.04942242       5.54885710
Si       1.18022165      -1.60823465       4.66332842
6
Lattice="3.84980977877082 -0.9087455680613481 -0.4049392931933581 -0.812600216223903 5.532568736422299 -0.6626198892401479 -0.2264585877354955 -3.5285049384850264 5.827490121652798" Properties=species:S:1:pos:R:3 unique_starting_index=70 config_type=initial n_minim_iter=9 stress="0.00016191740832307883 -0.0001495783429516452 -0.0001174245223245387 -0.0001495783429516452 -0.00041743327863363026 0.0001610825780992445 -0.0001174245223245387 0.0001610825780992445 0.0005800999122070545" pbc="T T T"
Si       1.82138521      -2.04963645       2.42446750
Si       3.13062507      -0.27856106       1.56171744
Si       1.53859599       1.28118109       2.44692796
Si       0.89809109       1.72278230       4.68424732
Si      -0.41114877      -0.04829309       5.54699738
Si       1.18088031      -1.60803525       4.66178687
6
Lattice="3.849166982829948 -0.9082949389542968 -0.40425850431267124 -0.8112920018916465 5.53506065171133 -0.6621823079875124 -0.22654196718948677 -3.530094689561779 5.824151012944638" Properties=species:S:1:pos:R:3 unique_starting_index=70 config_type=initial n_minim_iter=10 stress="0.00012050577700722505 0.00018003270369786194 8.216022519231389e-05 0.00018003270369786194 4.408903603704952e-06 -7.943784909486575e-05 8.216022519231389e-05 -7.943784909486575e-05 -0.00023041147446454025" pbc="T T T"
Si       1.82103247      -2.05002963       2.42538972
Si       3.12994943      -0.27785230       1.56095506
Si       1.53803948       1.28186825       2.44512948
Si       0.89899226       1.72388751       4.67975853
Si      -0.40992470      -0.04828981       5.54419319
Si       1.18198525      -1.60801037       4.66001877
6
Lattice="3.848680752422595 -0.9090470100549206 -0.404615218538901 -0.8120611988465514 5.535649921437969 -0.6620654890730158 -0.22629113474458445 -3.5301794821388572 5.824969325424415" Properties=species:S:1:pos:R:3 unique_starting_index=70 config_type=initial n_minim_iter=11 stress="-2.983734521958509e-05 -1.196841530762556e-05 -2.3786904139886887e-05 -1.196841530762556e-05 7.42960799956825e-05 -1.387383703486932e-05 -2.3786904139886887e-05 -1.387383703486932e-05 -6.019423222210787e-05" pbc="T T T"
Si       1.82092245      -2.05042220       2.42567362
Si       3.12920718      -0.27842961       1.56075692
Si       1.53735913       1.28181226       2.44530051
Si       0.89819878       1.72399832       4.68038287
Si      -0.41008594      -0.04799428       5.54529957
Si       1.18176210      -1.60823615       4.66075597
6
Lattice="3.84824694140449 -0.9099958937845938 -0.404748240475497 -0.8132201703818509 5.536001555265538 -0.6619549928744516 -0.22540812053258868 -3.5299623551445998 5.82619222641352" Properties=species:S:1:pos:R:3 unique_starting_index=70 config_type=initial n_minim_iter=12 stress="-5.828419218012558e-05 -0.000164232798899585 -0.000107503928040488 -0.000164232798899585 1.947998313991427e-05 0.00014188078964865545 -0.000107503928040488 0.00014188078964865545 0.000179943898908403" pbc="T T T"
Si       1.82123623      -2.05086680       2.42657331
Si       3.12826538      -0.27929337       1.56017590
Si       1.53713568       1.28201779       2.44561109
Si       0.89753114       1.72415030       4.68117645
Si      -0.40949801      -0.04742313       5.54757386
Si       1.18163169      -1.60873428       4.66213867
