6
Lattice="3.635479738645278 0.16160935533890683 0.10131014331077286 -0.841762489655936 5.450729430013382 -0.10792232354250092 -0.08159342563682219 -0.8868094047628524 9.440601192861925" Properties=species:S:1:pos:R:3 unique_starting_index=148 config_type=initial n_minim_iter=1 energy=-973.7500680932691 free_energy=-973.7500680932691 pbc="T T T"
Si       1.78945142       2.72924418       3.53203105
Si       1.93286883       2.15698691       1.21386921
Si       0.17350874       3.04911776       5.90273100
Si       2.07489222       1.52425675       5.49889569
Si       0.33427587      -0.11816843       5.40330357
Si       0.10953627       1.37830490       2.47654231
6
Lattice="3.621737261553291 0.19083202753723857 0.10867571861583819 -0.791627562563154 5.324979839446782 -0.02781514511861885 -0.0717042664936805 -0.730061948374858 9.277321601318452" Properties=species:S:1:pos:R:3 unique_starting_index=148 config_type=initial n_minim_iter=2 stress="-0.009369699435909649 0.0024718969952357657 0.00023100018427780304 0.0024718969952357657 -0.011751674887106309 -0.0003044359672421894 0.00023100018427780304 -0.0003044359672421894 -0.006082246880245109" pbc="T T T"
Si       1.80744620       2.77617809       3.49916263
Si       1.94440919       2.14454316       1.22878294
Si       0.18659261       3.09090896       5.85588524
Si       2.09796225       1.58564831       5.46260985
Si       0.36230980      -0.05898667       5.27787040
Si       0.12447127       1.35882149       2.48980283
6
Lattice="3.6631313455097003 0.2201423036598349 0.11937960275119495 -0.7581896962576924 5.267095649504566 0.08624204831446894 -0.05767904131308903 -0.5239006785471192 9.152704028285934" Properties=species:S:1:pos:R:3 unique_starting_index=148 config_type=initial n_minim_iter=3 stress="0.0009576091211346223 0.004337279154660096 0.0010445258388518468 0.004337279154660096 -0.010196228926945916 0.0004574067512199544 0.0010445258388518468 0.0004574067512199544 -0.0008695333360083133" pbc="T T T"
Si       1.84952019       2.89965522       3.49383578
Si       1.98323697       2.16496975       1.26034816
Si       0.19042052       3.21480455       5.85979671
Si       2.15876029       1.69908252       5.47771560
Si       0.40961317       0.02139818       5.15267003
Si       0.14218077       1.35744062       2.54125893
6
Lattice="3.6189710950460547 0.21734713636756411 0.11838940118850132 -0.7592882846233703 5.299257959023862 0.2919447702942497 -0.06429544845601085 -0.18064279031431763 8.81032959185822" Properties=species:S:1:pos:R:3 unique_starting_index=148 config_type=initial n_minim_iter=4 stress="0.003271809085453778 0.0010804873963055357 0.0009275956512469661 0.0010804873963055357 -0.011833153052969649 0.0022828258847017607 0.0009275956512469661 0.0022828258847017607 0.0032066895502767764" pbc="T T T"
Si       1.80012297       3.16417762       3.43907283
Si       1.94881658       2.21242512       1.28836883
Si       0.11067071       3.47313296       5.79124209
Si       2.14711107       1.90300380       5.42499351
Si       0.46151053       0.16977679       4.83532799
Si       0.14204282       1.37659277       2.60790841
6
Lattice="3.5842790400960562 0.21949308529320652 0.11410684612857297 -0.7540510830370477 5.384254873677579 0.37669051919569463 -0.07529160352146426 -0.053395651309341194 8.612024397589012" Properties=species:S:1:pos:R:3 unique_starting_index=148 config_type=initial n_minim_iter=5 stress="0.007076527229096299 -0.0014812053579176803 0.000910070211586925 -0.0014812053579176803 -0.00536256166361541 0.003891610867467815 0.000910070211586925 0.003891610867467815 0.0037931990970199118" pbc="T T T"
Si       1.76806011       3.32200316       3.39605591
Si       1.92601020       2.25857212       1.28852767
Si       0.07347977       3.60552264       5.72752320
Si       2.12778890       2.00676694       5.36932818
Si       0.47707355       0.23837190       4.66116598
Si       0.14020883       1.39336344       2.62513931
6
Lattice="3.532146075177929 0.21588658088026283 0.10071625417193497 -0.7517395881474658 5.514898697624101 0.33872770045922124 -0.10265621670712083 -0.1455586788576968 8.566763925531715" Properties=species:S:1:pos:R:3 unique_starting_index=148 config_type=initial n_minim_iter=6 stress="0.005099620816286066 -0.003894510940102834 0.0006784616681807415 -0.003894510940102834 0.00804728957934148 -0.0020485253980503607 0.0006784616681807415 -0.0020485253980503607 0.005445228720138097" pbc="T T T"
Si       1.72438574       3.37010298       3.35096522
Si       1.89189955       2.29275881       1.25680530
Si       0.05399420       3.60167600       5.67206523
Si       2.07279126       1.99373006       5.32221290
Si       0.45227016       0.23011113       4.62208449
Si       0.13008510       1.39497719       2.60907185
6
Lattice="3.5087358720200132 0.24325263816206602 0.08926864974385973 -0.7053622939745546 5.506242396109659 0.36736730835857195 -0.13807829238054664 -0.10239789570162794 8.481584160055373" Properties=species:S:1:pos:R:3 unique_starting_index=148 config_type=initial n_minim_iter=7 stress="-0.0009575479949064204 -0.0020960216155577393 -0.0010318166808236844 -0.0020960216155577393 0.003635333420358862 0.0013352594790495933 -0.0010318166808236844 0.0013352594790495933 -0.0036267210583884255" pbc="T T T"
Si       1.72175677       3.40653547       3.33628102
Si       1.89150452       2.30492438       1.24440413
Si       0.06431011       3.60035891       5.63438399
Si       2.04654689       2.03391592       5.27685096
Si       0.43032463       0.29129872       4.56233407
Si       0.13280003       1.40070822       2.60127203
6
Lattice="3.5143829177287507 0.2579241394832395 0.08684571161216387 -0.6824674548082442 5.473571115945566 0.34293404422115875 -0.14819360357364839 -0.14003299126464458 8.545848333788719" Properties=species:S:1:pos:R:3 unique_starting_index=148 config_type=initial n_minim_iter=8 stress="-0.005668459806605067 -0.0009326919011173304 -0.0005847545080085638 -0.0009326919011173304 0.002760523303021696 -0.0017234344628125778 -0.0005847545080085638 -0.0017234344628125778 -0.0017514505238067335" pbc="T T T"
Si       1.73671875       3.36043526       3.35770679
Si       1.90275109       2.29287799       1.23855360
Si       0.09303752       3.53562817       5.65518307
Si       2.04323655       2.01090811       5.29148772
Si       0.41269599       0.30285076       4.61751162
Si       0.13926641       1.39828435       2.59653877
6
Lattice="3.5573893516334785 0.27739393720566796 0.09070023729840383 -0.6608396329541475 5.409768097857265 0.3546906525986526 -0.1464446354665588 -0.10852998270991288 8.586954570923407" Properties=species:S:1:pos:R:3 unique_starting_index=148 config_type=initial n_minim_iter=9 stress="-0.0035886676379773092 0.0005138677455976838 0.00022288337285138955 0.0005138677455976838 0.0017603550388185264 -0.0010135533941988681 0.00022288337285138955 -0.0010135533941988681 -0.0011377181212773085" pbc="T T T"
Si       1.77587561       3.33983323       3.38983475
Si       1.93505182       2.27865391       1.24690490
Si       0.12943324       3.49729710       5.68787470
Si       2.07193713       2.02154846       5.32079492
Si       0.41441222       0.34517415       4.64703607
Si       0.15678478       1.39712401       2.60545654
6
Lattice="3.6034348602560695 0.28093641815245984 0.08959216544090509 -0.6636088819472292 5.342641282450631 0.37033744554284737 -0.1539673638303594 -0.07086627688141699 8.625475280663387" Properties=species:S:1:pos:R:3 unique_starting_index=148 config_type=initial n_minim_iter=10 stress="0.0003681244857926075 0.0004639250317988275 0.0009039391519197127 0.0004639250317988275 0.0006604768072178327 -0.00028258932937769073 0.0009039391519197127 -0.00028258932937769073 -0.00045660093712071115" pbc="T T T"
Si       1.79805741       3.31427561       3.41207991
Si       1.95769057       2.25525815       1.25832939
Si       0.13941852       3.46667248       5.72188430
Si       2.08996567       2.02459819       5.35296848
Si       0.41504366       0.37489312       4.67034270
Si       0.16627873       1.39304914       2.61392923
6
Lattice="3.6587602104574555 0.27905053349022824 0.0685593180882937 -0.6748807900213498 5.232055748537614 0.41248635902947905 -0.215505351447655 0.01251986375702557 8.712728521248344" Properties=species:S:1:pos:R:3 unique_starting_index=148 config_type=initial n_minim_iter=11 stress="0.005567177740785281 -0.0008455964579838874 0.000731910246655222 -0.0008455964579838874 -0.000839468710688939 0.0008787774589284654 0.000731910246655222 0.0008787774589284654 0.000647462531672068" pbc="T T T"
Si       1.79688056       3.28457435       3.43917241
Si       1.97150140       2.21427714       1.28511304
Si       0.11153001       3.43308670       5.80276209
Si       2.07381568       2.03958984       5.42953090
Si       0.39281626       0.42257671       4.70908967
Si       0.16755414       1.38694987       2.63387422
6
Lattice="3.6136421860419876 0.2886541702957229 0.049386415063585765 -0.6503388201757099 5.242164320524506 0.4276792765606338 -0.268320346082788 0.029339912499837924 8.746788025175395" Properties=species:S:1:pos:R:3 unique_starting_index=148 config_type=initial n_minim_iter=12 stress="-0.0016456740911693056 -0.0009181464634700027 -0.00012171996110743056 -0.0009181464634700027 -0.0011337809550576129 0.0001728178903771494 -0.00012171996110743056 0.0001728178903771494 -0.00041728082584755437" pbc="T T T"
Si       1.76169146       3.30983479       3.42862471
Si       1.94270496       2.22571785       1.29859344
Si       0.08221725       3.45145482       5.83510539
Si       2.02068266       2.06442591       5.46122818
Si       0.36358347       0.42679985       4.71459953
Si       0.15912781       1.39164334       2.63804203
6
Lattice="3.631390918907613 0.30674448868802584 0.04366601672273979 -0.6269276984964472 5.233970811467445 0.4325757375796458 -0.2888430127037864 0.036031209918005465 8.766860236645917" Properties=species:S:1:pos:R:3 unique_starting_index=148 config_type=initial n_minim_iter=13 stress="0.0006361483597769591 0.0003569648873996158 0.0002300151228607676 0.0003569648873996158 0.00046263255000723077 -0.00027431424822453555 0.0002300151228607676 -0.00027431424822453555 0.0009111201773444429" pbc="T T T"
Si       1.77962222       3.31345551       3.42841951
Si       1.95555368       2.23449941       1.30571658
Si       0.09016693       3.44897820       5.85290972
Si       2.02757975       2.08053617       5.47360358
Si       0.35431308       0.43728969       4.72696278
Si       0.16644862       1.39585261       2.63752461
6
Lattice="3.6309509759568694 0.3148978327325767 0.03780181677951284 -0.6153052912530388 5.252835295149081 0.4339889702037932 -0.304833589176387 0.03202839145380349 8.72959023686734" Properties=species:S:1:pos:R:3 unique_starting_index=148 config_type=initial n_minim_iter=14 stress="0.00019982380283566024 0.00016710319817541498 0.0011025041798108511 0.00016710319817541498 0.0003698978472714706 -0.00042916174989688857 0.0011025041798108511 -0.00042916174989688857 -0.0022244887578815233" pbc="T T T"
Si       1.78426993       3.32026956       3.40597601
Si       1.94811902       2.24884935       1.30049489
Si       0.08080814       3.45779647       5.83625805
Si       2.02971283       2.09287449       5.44089651
Si       0.34481184       0.44115404       4.70751404
Si       0.17106986       1.40228710       2.62854497
6
Lattice="3.629903586341515 0.32966376761366223 -0.015037135705200088 -0.5916903231827093 5.230344682760851 0.481883750498356 -0.4514271740124305 0.0976976840449152 8.833080839392224" Properties=species:S:1:pos:R:3 unique_starting_index=148 config_type=initial n_minim_iter=15 stress="0.0009527406394902368 -0.0013583080723951891 -0.00017869581318082114 -0.0013583080723951891 0.0006782549310681179 0.00013780362326894964 -0.00017869581318082114 0.00013780362326894964 -0.0005303404434957142" pbc="T T T"
Si       1.75199631       3.32746502       3.41730807
Si       1.91161350       2.25781939       1.30720922
Si      -0.01076204       3.47715302       5.94358154
Si       1.96030394       2.14339733       5.48017217
Si       0.26815522       0.48797221       4.75925154
Si       0.15632932       1.41945538       2.66183679
6
Lattice="3.6057573683762514 0.3635117737987421 -0.05098489761414114 -0.5351988454538623 5.234154913926092 0.50865183335897 -0.5563866217158138 0.12819000453326898 8.924237158106209" Properties=species:S:1:pos:R:3 unique_starting_index=148 config_type=initial n_minim_iter=16 stress="0.000795820806473062 -0.00035371299750558535 -0.0009724837500720528 -0.00035371299750558535 0.0016666642794231502 0.0006587849556892462 -0.0009724837500720528 0.0006587849556892462 0.0017729625391020346" pbc="T T T"
Si       1.74447120       3.35353047       3.43072456
Si       1.88075617       2.28587320       1.30284866
Si      -0.06197224       3.50422871       6.03533813
Si       1.91423225       2.18964903       5.50211224
Si       0.21590088       0.51307248       4.80610821
Si       0.15064596       1.43312361       2.70147853
6
Lattice="3.5897969877937284 0.38193911506072614 -0.04144329695006536 -0.5022401616424051 5.201471665388533 0.49195894247576044 -0.5349615540429173 0.1075068860446716 8.929087168251217" Properties=species:S:1:pos:R:3 unique_starting_index=148 config_type=initial n_minim_iter=17 stress="-0.0013707074032956739 0.0011351608071551661 0.0008222841962173981 0.0011351608071551661 -0.0013236398721271664 0.0005305869050117835 0.0008222841962173981 0.0005305869050117835 -0.00012251213816196093" pbc="T T T"
Si       1.76769991       3.34816737       3.42463953
Si       1.87562799       2.28121269       1.29704513
Si      -0.03033436       3.48038104       6.03916792
Si       1.92127255       2.17476131       5.50000961
Si       0.23805401       0.49376002       4.80349541
Si       0.16482322       1.41642551       2.71051035
6
Lattice="3.5863607423249104 0.4322880870533276 -0.11713184685209027 -0.4216788527940247 5.13939615216636 0.5181417873013506 -0.747932747332103 0.13111131297901965 9.042824847290772" Properties=species:S:1:pos:R:3 unique_starting_index=148 config_type=initial n_minim_iter=18 stress="0.00035143046045599344 0.0001944889683939167 0.00034135894235390725 0.0001944889683939167 -0.0016929327426942295 -0.0007495600251110326 0.00034135894235390725 -0.0007495600251110326 0.00121797774065011" pbc="T T T"
Si       1.76194015       3.34545697       3.38736152
Si       1.81451943       2.28908041       1.28965681
Si      -0.13274461       3.45820402       6.17014625
Si       1.82019995       2.21088269       5.50589025
Si       0.14889492       0.51168390       4.85101004
Si       0.16014094       1.41469900       2.74254299
6
Lattice="3.5581960912976234 0.4289161774466756 -0.1253248060797936 -0.4215606351757514 5.188736510398193 0.49651652715477806 -0.7632804984215719 0.08164155428242711 8.96122437821316" Properties=species:S:1:pos:R:3 unique_starting_index=148 config_type=initial n_minim_iter=19 stress="-0.0010961179346789063 0.00014142076187428134 -0.00016429120866823325 0.00014142076187428134 -0.0009234084322155095 0.0006385652345878727 -0.00016429120866823325 0.0006385652345878727 -0.0013432817195951077" pbc="T T T"
Si       1.75270325       3.37513597       3.35478448
Si       1.78380473       2.29691639       1.24770131
Si      -0.14396288       3.46512519       6.12191858
Si       1.77977186       2.19197145       5.41380870
Si       0.15330714       0.47500638       4.80475054
Si       0.14214590       1.40597133       2.72658471
6
Lattice="3.539775123918022 0.4824325153218455 -0.20191981287009714 -0.334273691139685 5.173221625085877 0.5029611181231393 -0.9753371771108759 0.06225066567068356 9.010605746045613" Properties=species:S:1:pos:R:3 unique_starting_index=148 config_type=initial n_minim_iter=20 stress="0.00023721257366445138 8.063550821717375e-05 -0.0007678124021398537 8.063550821717375e-05 0.0023072520900615985 0.00024866212613965707 -0.0007678124021398537 0.00024866212613965707 0.0021646143483847803" pbc="T T T"
Si       1.75548138       3.41036978       3.29533831
Si       1.70636391       2.31005534       1.21226802
Si      -0.23804862       3.44433113       6.21881041
Si       1.66369496       2.22197145       5.34793143
Si       0.07160239       0.46451366       4.82052217
Si       0.12704117       1.39977645       2.73479898
6
Lattice="3.5343127584379577 0.5783211673292546 -0.3545456708262325 -0.1805757650116374 5.104589940196258 0.4640575618168194 -1.3878943137737934 -0.061088856784853374 8.954410090702435" Properties=species:S:1:pos:R:3 unique_starting_index=148 config_type=initial n_minim_iter=21 stress="0.005659740062034027 -0.0006376605576036735 -0.0005129983383501803 -0.0006376605576036735 0.009325181429658531 -0.002569946746780217 -0.0005129983383501803 -0.002569946746780217 0.009454037889749523" pbc="T T T"
Si       1.79274856       3.46784684       3.09528794
Si       1.54252273       2.28234762       1.10320393
Si      -0.41328466       3.30930387       6.30559476
Si       1.43656100       2.21951887       5.08981385
Si      -0.07277162       0.37899456       4.77099302
Si       0.09222055       1.34632124       2.67209056
