24
Lattice="5.756338349649028 -1.2139053826585682 0.9457542968035608 1.4444349057039116 8.772930632772928 -0.9009663503427884 2.440683624446371 1.8343614439274532 8.831147497416685" Properties=species:S:1:pos:R:3 unique_starting_index=94 config_type=initial n_minim_iter=1 energy=-3906.9665035149646 free_energy=-3906.9665035149646 pbc="T T T"
Si       7.93915333       6.88776703       8.57624720
Si       0.83405868       2.34437268       1.65242958
Si       1.54013938       7.62176979      -0.35928886
Si       6.37624787       8.96681715       5.89559340
Si       4.63358317       2.41538211       1.85372956
Si       5.23296847       3.85931124       9.15253960
Si       3.74657767       0.96063666       3.62432376
Si       2.96218793      -0.72034674       2.10274598
Si       7.83235315       0.56645987       6.03926845
Si       8.24246619       7.46280998       6.23591171
Si       4.80059636       5.88044912       7.80708504
Si       5.86375481       1.30494006       4.88848365
Si       3.71287254       6.15520724       2.54019155
Si       2.35041985       5.50623602       7.38516151
Si       5.21115217       3.54905172       5.26740989
Si       6.66747451       4.94183225       6.45993143
Si       4.13244591       1.95846971       8.16189642
Si       3.29925508       6.05023232       0.08730836
Si       7.57031006       3.60782950       2.58808640
Si       3.19528091       3.32478793       6.47161429
Si       7.50700136       5.98349707       4.47298351
Si       0.63405676      -0.02824816       2.54917411
Si       4.52618542       7.59876709       6.10264898
Si       5.31628845       4.41481685       3.05661125
24
Lattice="5.766023481523814 -1.2051754972925162 0.9534320837207044 1.4639347642554628 8.784705732895567 -0.9160814099135897 2.4544582413527674 1.826830904985203 8.851261663823086" Properties=species:S:1:pos:R:3 unique_starting_index=94 config_type=initial n_minim_iter=2 stress="0.0014645788723292926 -0.00017954738067896294 -0.00022401393416653 -0.00017954738067896294 0.00197793151030735 0.0002336616231620471 -0.00022401393416653 0.0002336616231620471 0.001834811144766119" pbc="T T T"
Si       7.97391391       6.89606234       8.59056801
Si       0.84102484       2.34531854       1.65373726
Si       1.55793505       7.63167912      -0.37112426
Si       6.41032410       8.97804336       5.89964557
Si       4.64839392       2.42311134       1.85673607
Si       5.25617460       3.85837040       9.17227581
Si       3.75829718       0.96347215       3.63395274
Si       2.96774987      -0.71850846       2.11118093
Si       7.85274024       0.57262993       6.05754217
Si       8.27769643       7.47591031       6.24447578
Si       4.82678798       5.88250788       7.81935983
Si       5.88074799       1.30995904       4.90205331
Si       3.73416126       6.16376270       2.53913114
Si       2.37109584       5.50390231       7.39579816
Si       5.23152899       3.55356626       5.27749525
Si       6.69354559       4.94842544       6.47276047
Si       4.14938965       1.95598436       8.18092489
Si       3.31745667       6.06109138       0.07996288
Si       7.59356094       3.62174725       2.59353134
Si       3.21228271       3.32419513       6.48451577
Si       7.53741066       5.99696036       4.47832520
Si       0.63636223      -0.03063382       2.55601015
Si       4.55368620       7.60405436       6.10819082
Si       5.33693359       4.42387184       3.06011666
24
Lattice="5.760372959019032 -1.187607311691738 0.9626086752218095 1.4865851192293804 8.763951642304438 -0.9349888024426113 2.4688895159552597 1.8064829824204878 8.842489137433027" Properties=species:S:1:pos:R:3 unique_starting_index=94 config_type=initial n_minim_iter=3 stress="-0.0010583925920414118 0.0014793762914436796 0.00031437248745159357 0.0014793762914436796 -0.0011564992151926023 -0.001137227446588082 0.00031437248745159357 -0.001137227446588082 -1.7458052530751326e-05" pbc="T T T"
Si       7.99988222       6.87720696       8.57474878
Si       0.84827169       2.33612501       1.64901869
Si       1.57816107       7.61286996      -0.38738718
Si       6.43955088       8.95469269       5.88033358
Si       4.65390564       2.42268740       1.85357668
Si       5.27419687       3.83859027       9.16264800
Si       3.76381710       0.96328962       3.63321479
Si       2.96582377      -0.71329564       2.11602687
Si       7.85694545       0.57768690       6.06008498
Si       8.30258195       7.46191004       6.23146603
Si       4.85102354       5.85855415       7.80333821
Si       5.88629780       1.31050465       4.90243462
Si       3.75310713       6.14912775       2.52675441
Si       2.39624436       5.47548411       7.37881917
Si       5.24441450       3.54337899       5.26992889
Si       6.70912306       4.93460884       6.46567072
Si       4.16204709       1.94330726       8.17378189
Si       3.33174135       6.04962125       0.06921228
Si       7.60114150       3.62588154       2.59239348
Si       3.22833858       3.30830554       6.47614799
Si       7.55803409       5.99060712       4.46747583
Si       0.63782023      -0.03389700       2.55531299
Si       4.57967895       7.57719198       6.08989800
Si       5.34861579       4.41661669       3.05284021
24
Lattice="5.793022009746409 -1.1926818655711662 0.9694682103834946 1.481490496115365 8.747050894717482 -0.9294154998079523 2.493322943886904 1.8013962223110231 8.825712137859208" Properties=species:S:1:pos:R:3 unique_starting_index=94 config_type=initial n_minim_iter=4 stress="0.002065372271645376 0.0005838338377105909 0.0011681165987159827 0.0005838338377105909 -0.0016979719926857705 -0.00030907188238233225 0.0011681165987159827 -0.00030907188238233225 -0.0013628058385480272" pbc="T T T"
Si       8.05067764       6.86132532       8.56050308
Si       0.84820138       2.32988671       1.65305369
Si       1.57664863       7.59591888      -0.38312904
Si       6.47320184       8.93450924       5.87509823
Si       4.67375139       2.40596920       1.85044689
Si       5.30749246       3.82555043       9.15427480
Si       3.79143629       0.96246764       3.63031564
Si       2.98208535      -0.71676275       2.12136594
Si       7.90516865       0.56587976       6.05633694
Si       8.35192515       7.44468354       6.23217087
Si       4.88548439       5.84210615       7.78858479
Si       5.92011826       1.30014079       4.90271475
Si       3.77251676       6.13498406       2.52770273
Si       2.42310340       5.46440556       7.36447579
Si       5.27313802       3.52809526       5.26200593
Si       6.73779839       4.91116040       6.47074005
Si       4.19160545       1.94430599       8.15909370
Si       3.33734339       6.02608909       0.07606071
Si       7.63470653       3.61213070       2.60152906
Si       3.25464195       3.30451807       6.47177594
Si       7.60866537       5.98041717       4.46285615
Si       0.63931088      -0.02881914       2.55347765
Si       4.60365873       7.55364938       6.08253011
Si       5.36895430       4.39710882       3.05309895
24
Lattice="5.744142570413896 -1.214892705075727 0.9499696692729563 1.4506715738283278 8.788814044631584 -0.9503396833134766 2.4293298268717516 1.793972537674941 8.854385478951837" Properties=species:S:1:pos:R:3 unique_starting_index=94 config_type=initial n_minim_iter=5 stress="-0.0026596433591681737 -0.00031878492550546064 -0.0014322514719932412 -0.00031878492550546064 0.000372381392711144 -0.0009370331399646735 -0.0014322514719932412 -0.0009370331399646735 0.0007804642862505069" pbc="T T T"
Si       7.94144282       6.87813707       8.53860546
Si       0.81741521       2.33427381       1.66979205
Si       1.54862110       7.62574710      -0.40073988
Si       6.37663045       8.96095723       5.85804930
Si       4.61181244       2.38631594       1.81872008
Si       5.20452738       3.81871540       9.18199279
Si       3.75110832       0.96598620       3.62845048
Si       2.94076660      -0.73345080       2.13353845
Si       7.80961689       0.53882823       6.04473515
Si       8.25249726       7.46682026       6.21897972
Si       4.80725257       5.84625482       7.78560471
Si       5.84056456       1.28172567       4.90458212
Si       3.72443618       6.15450703       2.51669061
Si       2.38141416       5.47910047       7.37913162
Si       5.19188308       3.51871440       5.24983998
Si       6.61729128       4.89232381       6.48731173
Si       4.10981746       1.95492807       8.17176164
Si       3.28414889       6.02539899       0.05727468
Si       7.53786739       3.61271306       2.58368215
Si       3.19988779       3.31776325       6.49629153
Si       7.54149020       6.00740825       4.42903206
Si       0.60879748      -0.01956901       2.57017737
Si       4.52187229       7.55982883       6.07872058
Si       5.28377707       4.38738912       3.03375620
24
Lattice="5.762388905728345 -1.1976504620853838 0.9682163467461722 1.4715719722489669 8.785766318107791 -0.9110360433828402 2.477796606064079 1.8311016105950713 8.857960550610288" Properties=species:S:1:pos:R:3 unique_starting_index=94 config_type=initial n_minim_iter=6 stress="-0.0008208844401042161 0.0012920562908471614 0.001557136222098396 0.0012920562908471614 0.000681727980514364 0.002356083508201525 0.001557136222098396 0.002356083508201525 3.419454264421389e-05" pbc="T T T"
Si       8.01821020       6.92748049       8.58014094
Si       0.83074968       2.34128597       1.68114348
Si       1.57346086       7.62579035      -0.36547406
Si       6.44030606       8.99485217       5.90960843
Si       4.63863041       2.40039853       1.84040069
Si       5.26390672       3.86402075       9.20656627
Si       3.78003541       0.98953265       3.64158320
Si       2.95409728      -0.71898424       2.14314663
Si       7.86113551       0.58104637       6.07133021
Si       8.32352832       7.50820666       6.27073750
Si       4.86998479       5.88133912       7.81462604
Si       5.88062249       1.31241377       4.92794854
Si       3.76308809       6.16955922       2.55027476
Si       2.43628702       5.51110057       7.39789016
Si       5.23595816       3.54717816       5.27478325
Si       6.67488783       4.92765345       6.52300604
Si       4.15928311       1.99371094       8.18299097
Si       3.30564070       6.02737335       0.09338038
Si       7.57683175       3.64033475       2.62706134
Si       3.24444611       3.34815648       6.51101173
Si       7.60059539       6.04064343       4.47949244
Si       0.61874599      -0.00675499       2.56832161
Si       4.58049947       7.58811374       6.11454039
Si       5.31810593       4.40510061       3.06517971
24
Lattice="5.808236438960734 -1.2056314429603077 0.9721155063302314 1.468004317691868 8.758108822857153 -0.9325456273357986 2.4980428932767125 1.7964126844934227 8.829454013191542" Properties=species:S:1:pos:R:3 unique_starting_index=94 config_type=initial n_minim_iter=7 stress="0.003738983745606353 -0.0006073500783829374 0.0014210508975387834 -0.0006073500783829374 -0.0006469146063357084 0.00027917929056765366 0.0014210508975387834 0.00027917929056765366 -0.0011532201751430606" pbc="T T T"
Si       8.07322976       6.87141988       8.53650939
Si       0.83233357       2.32784025       1.67222583
Si       1.57905016       7.60131231      -0.38395644
Si       6.47505381       8.94053050       5.87399352
Si       4.67142390       2.37854564       1.82670768
Si       5.29708736       3.81911764       9.17580976
Si       3.80831634       0.97178542       3.62946322
Si       2.97530219      -0.72733774       2.14480687
Si       7.92590182       0.55447237       6.05942154
Si       8.38076958       7.45566507       6.23479902
Si       4.90359919       5.82975528       7.77896812
Si       5.92447434       1.28529202       4.91559103
Si       3.78598528       6.13546243       2.52651836
Si       2.45402016       5.47142221       7.36295001
Si       5.27086763       3.51139581       5.25135641
Si       6.72167362       4.88128788       6.49162455
Si       4.19013565       1.95628649       8.15592835
Si       3.31734142       5.99828684       0.07879697
Si       7.62616336       3.61220466       2.61737853
Si       3.26545938       3.31365475       6.48190795
Si       7.65432900       5.99772493       4.46246734
Si       0.62149317      -0.01298648       2.55942533
Si       4.60945795       7.53817855       6.07627290
Si       5.34661566       4.36807157       3.04368375
24
Lattice="5.788169034335468 -1.1803136300500539 0.9182669336769052 1.5122611694437622 8.767799174626893 -0.933976373252642 2.4200971554204864 1.8223744921105924 8.831691766059532" Properties=species:S:1:pos:R:3 unique_starting_index=94 config_type=initial n_minim_iter=8 stress="0.0025520191670848863 0.0008364032490185088 -0.003544755378257551 0.0008364032490185088 -0.00154620109722311 -0.00025702546046374995 -0.003544755378257551 -0.00025702546046374995 -0.00010091595541635842" pbc="T T T"
Si       8.02612334       6.94229712       8.46766837
Si       0.81315579       2.33587980       1.68565445
Si       1.64357647       7.61291229      -0.38300584
Si       6.44303985       8.98596668       5.85546592
Si       4.66220659       2.38876348       1.76337738
Si       5.19309101       3.86627991       9.17505454
Si       3.77387033       1.00543446       3.59857743
Si       2.92815702      -0.71103302       2.14483217
Si       7.87731958       0.62166520       6.00943823
Si       8.36842230       7.52218552       6.17578652
Si       4.86434844       5.84890978       7.75986726
Si       5.87279280       1.31709282       4.88684534
Si       3.80064830       6.15158785       2.50342959
Si       2.43392475       5.51171790       7.36600861
Si       5.22170738       3.53695690       5.21217876
Si       6.67592026       4.90782103       6.44122402
Si       4.10885909       1.98841920       8.13544518
Si       3.31833668       5.98754548       0.06332083
Si       7.58812405       3.66778530       2.58162547
Si       3.21273949       3.34199047       6.46135795
Si       7.65884616       6.04899206       4.45020787
Si       0.57774150       0.00513621       2.55487936
Si       4.59860197       7.56086718       6.04828970
Si       5.29617441       4.36227372       2.98882977
24
Lattice="5.762836119756043 -1.1999565014720681 0.9448915956087532 1.4831613211549362 8.810176180179216 -0.9487317607961766 2.436401763890192 1.8084845701342123 8.859763186785704" Properties=species:S:1:pos:R:3 unique_starting_index=94 config_type=initial n_minim_iter=9 stress="-0.0008322976150089269 -0.0008706826707354476 -0.0011720110530958215 -0.0008706826707354476 0.00019177548943211754 -0.0022459295485200517 -0.0011720110530958215 -0.0022459295485200517 0.0010388996267683165" pbc="T T T"
Si       8.01040180       6.95823869       8.48583174
Si       0.80156614       2.34265822       1.69833868
Si       1.63875185       7.64826350      -0.39145181
Si       6.40740602       9.00810938       5.88418832
Si       4.64044481       2.37698872       1.75890357
Si       5.17003766       3.86086583       9.22452681
Si       3.76410461       1.00400904       3.61596001
Si       2.90662262      -0.72401109       2.18060379
Si       7.86574881       0.61202483       6.05737099
Si       8.34959677       7.54337286       6.20153493
Si       4.86645982       5.83951121       7.78326229
Si       5.85296669       1.29973420       4.92798803
Si       3.78787102       6.16436381       2.50912920
Si       2.45850374       5.52996450       7.38118843
Si       5.19881756       3.52802126       5.23168839
Si       6.65409253       4.89378650       6.46395751
Si       4.10747264       1.97447938       8.16461070
Si       3.27442839       5.98778024       0.06789038
Si       7.53413597       3.67820487       2.62646138
Si       3.21231797       3.34250522       6.47493852
Si       7.64492032       6.06079639       4.50348880
Si       0.56956867       0.00679790       2.56108265
Si       4.59541513       7.56809264       6.05595239
Si       5.24472953       4.33976300       2.99259385
24
Lattice="5.768162592729567 -1.1858858616874202 0.9436288815530041 1.5040969843556211 8.821428537747604 -0.921855129413559 2.4486700349755512 1.8413661334069005 8.856542950521224" Properties=species:S:1:pos:R:3 unique_starting_index=94 config_type=initial n_minim_iter=10 stress="-0.00048418111528816273 -1.0128860872973888e-05 -0.0002288186779617525 -1.0128860872973888e-05 0.00022117675739318003 -0.00020891159371792863 -0.0002288186779617525 -0.00020891159371792863 0.0001001122225775285" pbc="T T T"
Si       8.05171196       7.02448135       8.48435074
Si       0.79967782       2.35328610       1.71413560
Si       1.67246932       7.65700906      -0.36765235
Si       6.43804556       9.05259722       5.91268261
Si       4.65405145       2.38549938       1.74515116
Si       5.17017290       3.90553841       9.24019954
Si       3.77130488       1.03153829       3.61346375
Si       2.89664270      -0.70992778       2.19437657
Si       7.88689876       0.65935271       6.05695086
Si       8.39964574       7.60455230       6.21597691
Si       4.90140293       5.86853783       7.79039750
Si       5.86254478       1.32640310       4.93847656
Si       3.81437899       6.18318228       2.52539486
Si       2.49632973       5.57318184       7.38719717
Si       5.21113959       3.55439095       5.23308265
Si       6.67731007       4.92191471       6.46480582
Si       4.11864327       2.01454494       8.16075678
Si       3.27940822       5.98004235       0.09054655
Si       7.53973166       3.71958722       2.65555202
Si       3.22851854       3.37840087       6.47620487
Si       7.69365477       6.10420642       4.53878329
Si       0.55721004       0.02001329       2.56003782
Si       4.63350527       7.59495644       6.06480063
Si       5.23875309       4.33877238       2.99082529
24
Lattice="5.7772189464411925 -1.1611790502321668 0.949861202386489 1.5351044680047647 8.823046103066075 -0.8714283438617435 2.478999214589711 1.8978895482377123 8.873981432067703" Properties=species:S:1:pos:R:3 unique_starting_index=94 config_type=initial n_minim_iter=11 stress="9.583483132626945e-05 0.0008926131729490406 0.0021354633705000605 0.0008926131729490406 -0.00029328844448446264 0.0033120602968494815 0.0021354633705000605 0.0033120602968494815 -9.59126199111282e-05" pbc="T T T"
Si       8.13255793       7.13454072       8.51995450
Si       0.79447890       2.37245674       1.74964607
Si       1.72123616       7.64920225      -0.32506896
Si       6.49776291       9.11038427       5.98907936
Si       4.68134538       2.39687701       1.72307422
Si       5.17041011       3.97266350       9.29398656
Si       3.77735466       1.07420284       3.62164503
Si       2.88002807      -0.67590708       2.22966913
Si       7.92578084       0.74135940       6.07069669
Si       8.49905180       7.70778770       6.26643912
Si       4.97125926       5.90670810       7.82820393
Si       5.88266560       1.37014192       4.97841716
Si       3.84754162       6.20078574       2.57142674
Si       2.56146026       5.64577831       7.41397780
Si       5.23864469       3.59637368       5.25814653
Si       6.73273329       4.96348235       6.46938520
Si       4.15327666       2.08541745       8.18174005
Si       3.28499078       5.94553578       0.13816041
Si       7.54830729       3.78958394       2.73450302
Si       3.26261361       3.44299213       6.50178371
Si       7.78272477       6.16032447       4.62478206
Si       0.53326145       0.02968637       2.57249733
Si       4.70633778       7.62484447       6.09973559
Si       5.22067809       4.31653185       2.99631267
24
Lattice="5.776437128155692 -1.1609088301879174 0.9410376277847653 1.5472385418822692 8.862552939747474 -0.8848559256912893 2.4721645248105095 1.892017892713997 8.824159162014032" Properties=species:S:1:pos:R:3 unique_starting_index=94 config_type=initial n_minim_iter=12 stress="5.3619230748127084e-05 0.0012102703662239488 0.0014574150353016523 0.0012102703662239488 0.0014964929660786365 0.0018894599613322538 0.0014574150353016523 0.0018894599613322538 -0.0020306386772428373" pbc="T T T"
Si       8.13601738       7.16172014       8.46245437
Si       0.79384584       2.38307161       1.73760409
Si       1.72561995       7.67818954      -0.34126864
Si       6.50897221       9.14235263       5.93677355
Si       4.68514514       2.41004066       1.69992719
Si       5.16433230       3.97336429       9.23364151
Si       3.77007886       1.07367353       3.59774601
Si       2.87783296      -0.67372908       2.21787851
Si       7.92010332       0.74363677       6.02357747
Si       8.51046259       7.74412618       6.21255120
Si       4.97387177       5.92100077       7.77229839
Si       5.88016158       1.37328132       4.94602064
Si       3.84400390       6.22378551       2.54702999
Si       2.55449601       5.66195357       7.35964989
Si       5.24135298       3.61028259       5.22207034
Si       6.74058069       4.98237197       6.40850818
Si       4.15357626       2.08589338       8.13631342
Si       3.29533156       5.96888218       0.12441586
Si       7.55265908       3.81266450       2.71386195
Si       3.26136366       3.45381302       6.46417647
Si       7.78908839       6.18214019       4.57976525
Si       0.52710654       0.01368036       2.56550354
Si       4.71156262       7.64834058       6.04998663
Si       5.22113192       4.33105855       2.96684928
24
Lattice="5.776722155682731 -1.1655910093469828 0.9381761051787253 1.5322277127915316 8.810435759443568 -0.9006576072486437 2.4552922720379655 1.867533626954985 8.860360042828155" Properties=species:S:1:pos:R:3 unique_starting_index=94 config_type=initial n_minim_iter=13 stress="-0.00018823100750781834 -0.00014334243965129036 -5.2041583468650225e-05 -0.00014334243965129036 -0.0011217704915669922 0.00027495697921420996 -5.2041583468650225e-05 0.00027495697921420996 0.0005013092100646486" pbc="T T T"
Si       8.11043217       7.10179067       8.49526269
Si       0.78468833       2.37059633       1.74356888
Si       1.70275819       7.62525721      -0.35651479
Si       6.48987524       9.06881914       5.94664028
Si       4.67913064       2.38845212       1.69223895
Si       5.14331785       3.92523504       9.26170410
Si       3.75482542       1.05227027       3.60787214
Si       2.87675412      -0.66982939       2.22470868
Si       7.90595564       0.72159699       6.02936319
Si       8.49495255       7.68613137       6.22187852
Si       4.95384955       5.86917609       7.79342041
Si       5.86852270       1.35114969       4.95934448
Si       3.81487029       6.17583505       2.55270511
Si       2.52106843       5.62303612       7.37658656
Si       5.23135326       3.57858146       5.23942746
Si       6.73201200       4.94154268       6.40494787
Si       4.14588270       2.05900649       8.17278036
Si       3.28886652       5.92485145       0.11509180
Si       7.54331540       3.77893485       2.72265274
Si       3.24565888       3.42806431       6.49274798
Si       7.77022245       6.12279154       4.57696163
Si       0.51901537      -0.00981393       2.58662241
Si       4.68963856       7.58930903       6.06346551
Si       5.20594392       4.29336626       2.96848734
24
Lattice="5.777831177435373 -1.1686450178411716 0.9267483078174863 1.5434071778123883 8.859504864545652 -0.9214686852933506 2.4420264423695905 1.8578859954626372 8.818949016583172" Properties=species:S:1:pos:R:3 unique_starting_index=94 config_type=initial n_minim_iter=14 stress="0.0007612641589541463 -0.000264780063746549 -0.0011259931058570144 -0.000264780063746549 0.0014985244728614895 -0.0020621662639323966 -0.0011259931058570144 -0.0020621662639323966 -0.00048095829537366154" pbc="T T T"
Si       8.11278463       7.14022479       8.42708305
Si       0.77359586       2.38289952       1.74126841
Si       1.72436921       7.66272746      -0.37456618
Si       6.49643787       9.10558068       5.89906294
Si       4.67995007       2.38986079       1.64327485
Si       5.11963009       3.92533138       9.21921112
Si       3.74720585       1.05684380       3.58097690
Si       2.85963303      -0.67115052       2.22762981
Si       7.90853496       0.74180795       5.98350943
Si       8.52393184       7.73471550       6.16334491
Si       4.96238046       5.87007350       7.73132466
Si       5.85484851       1.35148125       4.93185781
Si       3.81772268       6.19611196       2.52451085
Si       2.52066217       5.65537331       7.31737286
Si       5.22613680       3.58758972       5.19894216
Si       6.73623735       4.95576511       6.33324385
Si       4.13727570       2.05155823       8.13373492
Si       3.28943937       5.93407910       0.10003212
Si       7.53436047       3.81370504       2.72011734
Si       3.23949283       3.44125204       6.45590113
Si       7.79400167       6.15684600       4.54178271
Si       0.49432720      -0.03331421       2.58382751
Si       4.70181575       7.60949686       6.00613204
Si       5.18205973       4.29455634       2.92873736
24
Lattice="5.77067220470244 -1.1711559139612238 0.9377581933805421 1.5265635066032468 8.832815781480907 -0.8979195192893433 2.452559925822337 1.8731834443424034 8.853933373176767" Properties=species:S:1:pos:R:3 unique_starting_index=94 config_type=initial n_minim_iter=15 stress="-0.0005515508905069451 0.00024729259526712333 0.00012809635032350088 0.00024729259526712333 0.0010398756765137862 5.346177060933679e-06 0.00012809635032350088 5.346177060933679e-06 0.0001546091747200128" pbc="T T T"
Si       8.09653447       7.13038606       8.49448645
Si       0.76908579       2.38033035       1.75588935
Si       1.71561579       7.64004058      -0.34591282
Si       6.49222384       9.08496421       5.95572312
Si       4.66509302       2.37429292       1.64957414
Si       5.13354878       3.92894306       9.26793128
Si       3.74990369       1.06021148       3.59920448
Si       2.85250902      -0.67199397       2.23835712
Si       7.90982508       0.76864418       6.01074040
Si       8.52676865       7.71813317       6.22480547
Si       4.96656169       5.85863232       7.76288723
Si       5.83747227       1.35608072       4.95473276
Si       3.80868246       6.17546613       2.55771981
Si       2.51554841       5.67264815       7.33987638
Si       5.22110366       3.58499985       5.23356328
Si       6.72942047       4.96196004       6.36757293
Si       4.14450494       2.04952643       8.17707242
Si       3.27895098       5.91043280       0.12618219
Si       7.51642561       3.80446007       2.77573898
Si       3.24300519       3.44693267       6.49687244
Si       7.78404289       6.15402897       4.57432693
Si       0.48640451      -0.05224795       2.59813435
Si       4.69756738       7.60067758       6.05221292
Si       5.16658394       4.29813886       2.96737083
24
Lattice="5.777621860417338 -1.1688969386306627 0.9378739803764057 1.5274026841909814 8.814732614013904 -0.8947791745483091 2.4550919584530555 1.87320286152698 8.861944496470244" Properties=species:S:1:pos:R:3 unique_starting_index=94 config_type=initial n_minim_iter=16 stress="4.1996116944898266e-05 0.00010933572045331686 0.00012540996347088136 0.00010933572045331686 -0.00011681321963195597 0.00017799669245709596 0.00012540996347088136 0.00017799669245709596 0.00017058884323859275" pbc="T T T"
Si       8.10784508       7.12401142       8.49930598
Si       0.76630860       2.37586036       1.76164154
Si       1.72275841       7.62148732      -0.34113141
Si       6.50119599       9.06916513       5.96688665
Si       4.67187919       2.36662585       1.64370867
Si       5.13152554       3.92442965       9.28098137
Si       3.75416597       1.06321184       3.60043003
Si       2.84916408      -0.67071577       2.24637284
Si       7.92096907       0.77722758       6.01401925
Si       8.54709178       7.71070148       6.23204487
Si       4.97650839       5.84433366       7.76701813
Si       5.83986139       1.35426942       4.96191598
Si       3.81581684       6.16245268       2.56237863
Si       2.52476577       5.67119846       7.34354423
Si       5.22356542       3.57832413       5.23706288
Si       6.73516348       4.95233492       6.37010684
Si       4.14793403       2.04949415       8.18381533
Si       3.27686327       5.88816219       0.13118459
Si       7.51829544       3.80282920       2.79110980
Si       3.24772784       3.44563405       6.50542920
Si       7.80240458       6.14845159       4.58603399
Si       0.47893343      -0.05150938       2.60103986
Si       4.70718615       7.58430480       6.05740256
Si       5.16254735       4.28082506       2.96760937
24
Lattice="5.786905551407059 -1.1712686614458285 0.9372340234720538 1.519955185396221 8.78853690262593 -0.890284862338853 2.4555699449026616 1.8708666222147594 8.869418928982194" Properties=species:S:1:pos:R:3 unique_starting_index=94 config_type=initial n_minim_iter=17 stress="0.0005715675639680909 -0.0003854924906045221 3.5382592764416166e-05 -0.0003854924906045221 -0.0019093472518441651 0.00038710510172043595 3.5382592764416166e-05 0.00038710510172043595 -0.00043672993561471565" pbc="T T T"
Si       8.10988350       7.10242333       8.50471589
Si       0.76249352       2.36529605       1.76328550
Si       1.72470012       7.58657575      -0.33071792
Si       6.51133501       9.03904962       5.98100401
Si       4.68572137       2.35706685       1.63933155
Si       5.12205699       3.91062148       9.29071627
Si       3.75778298       1.06616127       3.59769378
Si       2.84042199      -0.67645794       2.25594184
Si       7.93074041       0.78958789       6.01093718
Si       8.57483496       7.69099493       6.23957861
Si       4.98174123       5.81706455       7.76283667
Si       5.83428263       1.34471618       4.96806817
Si       3.82090998       6.14260940       2.56702362
Si       2.53145427       5.67409212       7.33752331
Si       5.21705159       3.56674446       5.24005320
Si       6.73353784       4.94015828       6.36640026
Si       4.14929171       2.04114586       8.18869260
Si       3.26508011       5.85078077       0.14088177
Si       7.51262258       3.79491494       2.82343509
Si       3.25188674       3.44082747       6.52172379
Si       7.82033290       6.13837755       4.60031327
Si       0.46375499      -0.05183194       2.60131293
Si       4.71303878       7.55906185       6.06296822
Si       5.15364489       4.25092494       2.96953107
24
Lattice="5.776163448479083 -1.17796610935687 0.9381462828007963 1.5139955009963035 8.81615910357788 -0.8979588756350037 2.4506160441109976 1.86740954062674 8.86293991101476" Properties=species:S:1:pos:R:3 unique_starting_index=94 config_type=initial n_minim_iter=18 stress="-0.0001760506115428973 8.76149400187572e-06 -7.414561772562765e-05 8.76149400187572e-06 0.00036984888239573036 -9.342713252194272e-05 -7.414561772562765e-05 -9.342713252194272e-05 4.915844970841809e-05" pbc="T T T"
Si       8.08148141       7.09900610       8.50552499
Si       0.76845585       2.36518450       1.74740077
Si       1.70821083       7.59877471      -0.33460516
Si       6.50819232       9.05430027       5.96954652
Si       4.68580831       2.37347069       1.65224165
Si       5.12288376       3.90765386       9.26944262
Si       3.74821024       1.06384780       3.59240947
Si       2.83816085      -0.68642348       2.24556488
Si       7.90827481       0.78598765       6.00037757
Si       8.55917122       7.69728010       6.23235087
Si       4.96176706       5.82939674       7.74892233
Si       5.81807153       1.34164145       4.95759012
Si       3.80925944       6.16064882       2.56180485
Si       2.51531902       5.68753686       7.32083538
Si       5.20299263       3.57661996       5.23888944
Si       6.71638576       4.96217985       6.35607241
Si       4.14336546       2.02897793       8.18299309
Si       3.25921054       5.87206950       0.13859121
Si       7.50309531       3.79682430       2.82704814
Si       3.24489354       3.44135080       6.52544527
Si       7.79215065       6.15176510       4.58372073
Si       0.46532566      -0.05598614       2.59528932
Si       4.69794081       7.58281814       6.05905770
Si       5.15775484       4.27275520       2.97577610
24
Lattice="5.77669997474676 -1.1744230832272073 0.9385777626471411 1.5201303477840975 8.822519279111855 -0.8938612485801556 2.454384421300418 1.8736837728579216 8.860342422117174" Properties=species:S:1:pos:R:3 unique_starting_index=94 config_type=initial n_minim_iter=19 stress="0.00021466043549597653 0.00019153759629668738 0.00017335601455486206 0.00019153759629668738 0.0006230599242736008 -0.00013403701919450023 0.00017335601455486206 -0.00013403701919450023 0.0003988787569747865" pbc="T T T"
Si       8.08712717       7.11172115       8.50127548
Si       0.76965642       2.36293533       1.74549990
Si       1.71426044       7.58686508      -0.33024640
Si       6.53071625       9.06226091       5.97910942
Si       4.69739706       2.38101092       1.64244882
Si       5.13213696       3.91588925       9.26459192
Si       3.74062461       1.07576629       3.58316628
Si       2.83006721      -0.68139632       2.24890362
Si       7.91156837       0.80761858       5.99268037
Si       8.59307236       7.71926620       6.23244310
Si       4.96764160       5.83486178       7.74315367
Si       5.81128291       1.34944176       4.95575368
Si       3.81760879       6.16338420       2.57081594
Si       2.52644461       5.70860298       7.31240880
Si       5.20090121       3.58355874       5.24145388
Si       6.71898793       4.97705894       6.34095080
Si       4.14656954       2.02617099       8.18232189
Si       3.25161109       5.85291054       0.15125230
Si       7.50746942       3.81278396       2.86030853
Si       3.24294662       3.45086527       6.53004371
Si       7.81067755       6.17070050       4.59259211
Si       0.45450917      -0.04827810       2.58860252
Si       4.71765029       7.59453865       6.05992605
Si       5.15345634       4.27665453       2.97833161
24
Lattice="5.77697525336683 -1.1739765808956157 0.9364471535212318 1.5201630989889878 8.819455231808941 -0.8914014420154619 2.452763062935023 1.8751163141126501 8.853731030646662" Properties=species:S:1:pos:R:3 unique_starting_index=94 config_type=initial n_minim_iter=20 stress="0.0001326927791923904 8.233127832352758e-05 1.3928580935529843e-05 8.233127832352758e-05 1.704329396859677e-05 -0.00016529833970202752 1.3928580935529843e-05 -0.00016529833970202752 8.453470028232144e-05" pbc="T T T"
Si       8.08004612       7.10483753       8.49100908
Si       0.77208933       2.35647912       1.73939041
Si       1.70962616       7.57093945      -0.32858340
Si       6.54043479       9.05716071       5.97802713
Si       4.70260947       2.38490780       1.63932135
Si       5.14326867       3.91593528       9.25053140
Si       3.73314007       1.08170157       3.57286146
Si       2.82790158      -0.67940985       2.24367439
Si       7.90834361       0.81109211       5.98362274
Si       8.60442721       7.71890270       6.22744439
Si       4.95957978       5.83676374       7.73650080
Si       5.80466998       1.35187562       4.94673374
Si       3.82028322       6.16158180       2.57547078
Si       2.52647596       5.71127608       7.30721885
Si       5.19523972       3.58192810       5.24080056
Si       6.70991301       4.98022768       6.33440985
Si       4.14315468       2.01906945       8.17732029
Si       3.24359157       5.83619389       0.15966471
Si       7.51365684       3.81164735       2.87461026
Si       3.23383404       3.44995688       6.52910020
Si       7.81393645       6.17689571       4.58597318
Si       0.45179302      -0.03516239       2.57802983
Si       4.72357052       7.59843841       6.05989379
Si       5.15606195       4.28309967       2.98228794
24
Lattice="5.77362127841774 -1.1727388035766342 0.9320439331542569 1.519966906882659 8.82014211021621 -0.8787716891986007 2.448497330071442 1.8881394355548826 8.849039420579908" Properties=species:S:1:pos:R:3 unique_starting_index=94 config_type=initial n_minim_iter=21 stress="-0.0002010506461772708 -0.000308441267807149 2.4735536032232686e-05 -0.000308441267807149 -0.00033064614684383666 0.00038625584502356144 2.4735536032232686e-05 0.00038625584502356144 -0.00032879974271768917" pbc="T T T"
Si       8.06524266       7.11327864       8.48855731
Si       0.77602440       2.35549677       1.73446532
Si       1.70517952       7.56311149      -0.31775932
Si       6.54259214       9.06570898       5.98528238
Si       4.70401921       2.39516118       1.63900375
Si       5.15015374       3.92712526       9.23849439
Si       3.72175782       1.09058601       3.56293866
Si       2.82529729      -0.67278939       2.23504993
Si       7.90003200       0.82087944       5.97673764
Si       8.60467354       7.72745800       6.22934026
Si       4.94561230       5.85072127       7.73946964
Si       5.79599103       1.36206034       4.93823425
Si       3.81801735       6.17120581       2.58557324
Si       2.51815522       5.72075084       7.31262286
Si       5.18650797       3.58860308       5.24621304
Si       6.70129124       4.99362510       6.33246270
Si       4.13795957       2.02411026       8.17822781
Si       3.23694493       5.82805698       0.17627604
Si       7.51800966       3.81407067       2.89036921
Si       3.21882951       3.45605327       6.52710761
Si       7.80802678       6.19001711       4.58382479
Si       0.45258162      -0.02427451       2.56470600
Si       4.72860024       7.61605688       6.06924619
Si       5.16073193       4.29460615       2.99016110
