24
Lattice="4.71940729641436 3.1039351083233964 1.3470569915417085e-15 3.272591798642966 10.862051303782515 6.8859512911459936e-15 1.6580230193713464e-15 -8.500283745081685e-15 12.671596224749484" Properties=species:S:1:pos:R:3 unique_starting_index=172 config_type=initial n_minim_iter=1 energy=-3911.686375295253 free_energy=-3911.686375295253 pbc="T T T"
Si       5.29415365      11.74727193       8.28216922
Si       2.69784544       2.21871448       1.94637110
Si       2.69784544       2.21871448       4.38942701
Si       5.29415365      11.74727193      10.72522512
Si       2.95540520       8.69008833      10.72511864
Si       5.03659389       5.27589807       4.38932053
Si       5.03659389       5.27589807       1.94647758
Si       2.95540520       8.69008833       8.28227569
Si       1.28369558       3.17041051       8.32150919
Si       6.70830351      10.79557590       1.98571108
Si       6.70830351      10.79557590       4.35008703
Si       1.28369558       3.17041051      10.68588515
Si       3.62497177       6.41160825       8.30873870
Si       4.36702732       7.55437816       1.97294058
Si       4.36702732       7.55437816       4.36285753
Si       3.62497177       6.41160825      10.69865564
Si       5.63886171       9.11195846       5.58923128
Si       2.35313738       4.85402794      -0.74656683
Si       2.35313738       4.85402794       7.08236495
Si       5.63886171       9.11195846      13.41816306
Si       4.08696907      10.24097850      12.07355667
Si       3.90503002       3.72500791       5.73775856
Si       3.90503002       3.72500791       0.59803956
Si       4.08696907      10.24097850       6.93383767
24
Lattice="4.722329215041283 3.0972037369421326 1.3474988410336515e-15 3.279723996119789 10.830731705990601 6.857238059557802e-15 1.675301173619166e-15 -8.487490661712315e-15 12.630502451859474" Properties=species:S:1:pos:R:3 unique_starting_index=172 config_type=initial n_minim_iter=2 stress="-0.0014461917979839963 -0.00016297261333387438 -1.4228874390946214e-16 -0.00016297261333387438 -0.0011462424671798874 -1.321424949324969e-16 -1.4228874390946214e-16 -1.321424949324969e-16 -0.0008003132967423079" pbc="T T T"
Si       5.30221540      11.71486029       8.25566636
Si       2.69983780       2.21307514       1.94041514
Si       2.69983780       2.21307514       4.37483609
Si       5.30221540      11.71486029      10.69008732
Si       2.96102530       8.66505104      10.68993406
Si       5.04102791       5.26288440       4.37468283
Si       5.04102791       5.26288440       1.94056839
Si       2.96102530       8.66505104       8.25581962
Si       1.28557535       3.16141189       8.29396639
Si       6.71647786      10.76652354       1.97871517
Si       6.71647786      10.76652354       4.33653606
Si       1.28557535       3.16141189      10.65178729
Si       3.62943484       6.39410902       8.28169167
Si       4.37261837       7.53382642       1.96644044
Si       4.37261837       7.53382642       4.34881078
Si       3.62943484       6.39410902      10.66406201
Si       5.64504210       9.08722235       5.57130713
Si       2.35701111       4.84071309      -0.74394409
Si       2.35701111       4.84071309       7.05919532
Si       5.64504210       9.08722235      13.37444654
Si       4.09361026      10.21240833      12.03401296
Si       3.90844294       3.71552711       5.71876174
Si       3.90844294       3.71552711       0.59648949
Si       4.09361026      10.21240833       6.91174071
24
Lattice="4.756583837145166 3.104518670183237 1.350169944960942e-15 3.317029766882475 10.835723900812628 6.8525372235304725e-15 1.6824573688217e-15 -8.479776442724211e-15 12.609163130406232" Properties=species:S:1:pos:R:3 unique_starting_index=172 config_type=initial n_minim_iter=3 stress="0.004033572575412977 0.0009396359769185096 -1.0870482893205303e-16 0.0009396359769185096 -0.0005303683726577158 -5.0162735285387675e-17 -1.0870482893205303e-16 -5.0162735285387675e-17 -0.0004916424091765037" pbc="T T T"
Si       5.35337171      11.72504411       8.24331783
Si       2.72024189       2.21519846       1.93873626
Si       2.72024189       2.21519846       4.36584530
Si       5.35337171      11.72504411      10.67042687
Si       2.99191399       8.66886943      10.67002140
Si       5.08169961       5.27137313       4.36543984
Si       5.08169961       5.27137313       1.93914173
Si       2.99191399       8.66886943       8.24372329
Si       1.29687634       3.16329909       8.27676601
Si       6.77673727      10.77694348       1.97218444
Si       6.77673727      10.77694348       4.33239712
Si       1.29687634       3.16329909      10.63697869
Si       3.66145103       6.39943279       8.26686847
Si       4.41216257       7.54080977       1.96228690
Si       4.41216257       7.54080977       4.34229466
Si       3.66145103       6.39943279      10.64687623
Si       5.69188952       9.09506719       5.56290719
Si       2.38172408       4.84517538      -0.74167438
Si       2.38172408       4.84517538       7.04625594
Si       5.69188952       9.09506719      13.35083751
Si       4.13336318      10.22060095      12.01167371
Si       3.94025042       3.71964162       5.70709215
Si       3.94025042       3.71964162       0.59748942
Si       4.13336318      10.22060095       6.90207098
24
Lattice="4.748334373184684 3.117070414894381 1.3634231352604012e-15 3.311745791415614 10.878984405491588 6.8770010965834775e-15 1.6919810932258397e-15 -8.457469001367701e-15 12.559600332586378" Properties=species:S:1:pos:R:3 unique_starting_index=172 config_type=initial n_minim_iter=4 stress="0.0006279244278496165 0.0008244037194254949 -6.783981589121526e-17 0.0008244037194254949 0.0015296630304674316 -1.2879941402457353e-17 -6.783981589121526e-17 -1.2879941402457353e-17 -0.002363672771349732" pbc="T T T"
Si       5.34469430      11.78347612       8.21931169
Si       2.71538586       2.21257869       1.93951152
Si       2.71538586       2.21257869       4.34028864
Si       5.34469430      11.78347612      10.62008881
Si       2.97989807       8.69992246      10.61825891
Si       5.08018209       5.29613235       4.33845874
Si       5.08018209       5.29613235       1.94134142
Si       2.97989807       8.69992246       8.22114159
Si       1.28433231       3.17611141       8.22574351
Si       6.77574785      10.81994340       1.94594335
Si       6.77574785      10.81994340       4.33385682
Si       1.28433231       3.17611141      10.61365699
Si       3.65319710       6.42312197       8.22915430
Si       4.40688307       7.57293284       1.94935413
Si       4.40688307       7.57293284       4.33044604
Si       3.65319710       6.42312197      10.61024620
Si       5.66803026       9.12687438       5.54677026
Si       2.39204991       4.86918044      -0.73302990
Si       2.39204991       4.86918044       7.01283007
Si       5.66803026       9.12687438      13.29263024
Si       4.11721166      10.27238936      11.95245499
Si       3.94286850       3.72366546       5.67265483
Si       3.94286850       3.72366546       0.60714534
Si       4.11721166      10.27238936       6.88694551
24
Lattice="4.7459278198792925 3.0968348189999926 1.3526423664241154e-15 3.297217696985774 10.82772310428212 6.840512451077122e-15 1.7125210929689012e-15 -8.500964138139374e-15 12.611133923910433" Properties=species:S:1:pos:R:3 unique_starting_index=172 config_type=initial n_minim_iter=5 stress="0.000834532027782838 -0.00018719497986391961 -1.0353201609326185e-16 -0.00018719497986391961 -0.001751661862253552 -2.186759735888268e-17 -1.0353201609326185e-16 -2.186759735888268e-17 0.0008074963807148826" pbc="T T T"
Si       5.32939689      11.72937484       8.25501046
Si       2.71374862       2.19518308       1.94944350
Si       2.71374862       2.19518308       4.35612347
Si       5.32939689      11.72937484      10.66169043
Si       2.96617351       8.65736168      10.65952973
Si       5.07697200       5.26719624       4.35396277
Si       5.07697200       5.26719624       1.95160419
Si       2.96617351       8.65736168       8.25717115
Si       1.27694039       3.16113156       8.25367773
Si       6.76620512      10.76342636       1.94811077
Si       6.76620512      10.76342636       4.35745619
Si       1.27694039       3.16113156      10.66302315
Si       3.64479169       6.39006628       8.26117849
Si       4.39835382       7.53449164       1.95561153
Si       4.39835382       7.53449164       4.34995543
Si       3.64479169       6.39006628      10.65552240
Si       5.65277875       9.07878386       5.57190105
Si       2.39036676       4.84577406      -0.73366591
Si       2.39036676       4.84577406       7.03923287
Si       5.65277875       9.07878386      13.34479983
Si       4.10113893      10.22574347      11.99686912
Si       3.94200658       3.69881445       5.69130215
Si       3.94200658       3.69881445       0.61426481
Si       4.10113893      10.22574347       6.91983177
24
Lattice="4.74429345444809 3.115445036195308 1.3696619923098099e-15 3.3028353689770196 10.882583929304927 6.870667820867874e-15 1.7257130886451884e-15 -8.484778667690723e-15 12.568080060926993" Properties=species:S:1:pos:R:3 unique_starting_index=172 config_type=initial n_minim_iter=6 stress="-0.0015382340768445473 0.00027144657493768687 -1.3783458761979033e-16 0.00027144657493768687 0.0015016464215201054 -2.868841155252885e-17 -1.3783458761979033e-16 -2.868841155252885e-17 -0.00026126092842092746" pbc="T T T"
Si       5.33080402      11.80439684       8.23078573
Si       2.71632480       2.19363212       1.94674570
Si       2.71632480       2.19363212       4.33729433
Si       5.33080402      11.80439684      10.62133436
Si       2.96238229       8.69932876      10.61891806
Si       5.08474653       5.29870020       4.33487803
Si       5.08474653       5.29870020       1.94916200
Si       2.96238229       8.69932876       8.23320203
Si       1.26685822       3.18217760       8.20961960
Si       6.78027060      10.81585136       1.92557957
Si       6.78027060      10.81585136       4.35846046
Si       1.26685822       3.18217760      10.64250049
Si       3.64597221       6.42358875       8.22927997
Si       4.40115661       7.57444021       1.94523994
Si       4.40115661       7.57444021       4.33880009
Si       3.64597221       6.42358875      10.62284012
Si       5.64164827       9.12791152       5.56610777
Si       2.40548056       4.87011744      -0.71793226
Si       2.40548056       4.87011744       7.00197229
Si       5.64164827       9.12791152      13.28601232
Si       4.09769397      10.28706216      11.93754282
Si       3.94943485       3.71096680       5.65350279
Si       3.94943485       3.71096680       0.63053724
Si       4.09769397      10.28706216       6.91457727
24
Lattice="4.747024363820065 3.0957027285406133 1.3629729842310714e-15 3.2668310999958985 10.871119128652476 6.857887404801487e-15 1.7532832543970126e-15 -8.482795021972033e-15 12.533348897582723" Properties=species:S:1:pos:R:3 unique_starting_index=172 config_type=initial n_minim_iter=7 stress="0.0008770485676554654 -0.0034788727164449334 -2.5927558771085473e-16 -0.0034788727164449334 0.0015273467093715552 -8.435917661067037e-17 -2.5927558771085473e-16 -8.435917661067037e-17 -0.001461458208580689" pbc="T T T"
Si       5.29256520      11.79363679       8.20452870
Si       2.72129026       2.17318507       1.93785425
Si       2.72129026       2.17318507       4.32882020
Si       5.29256520      11.79363679      10.59549465
Si       2.92991972       8.68922895      10.59430137
Si       5.08393574       5.27759290       4.32762693
Si       5.08393574       5.27759290       1.93904752
Si       2.92991972       8.68922895       8.20572197
Si       1.25301361       3.18560530       8.18434955
Si       6.76084185      10.78121655       1.91767510
Si       6.76084185      10.78121655       4.34899935
Si       1.25301361       3.18560530      10.61567380
Si       3.63061557       6.41067759       8.20616422
Si       4.38323989       7.55614426       1.93948977
Si       4.38323989       7.55614426       4.32718468
Si       3.63061557       6.41067759      10.59385913
Si       5.61747625       9.11243363       5.56353416
Si       2.39637921       4.85438823      -0.70314029
Si       2.39637921       4.85438823       6.96981474
Si       5.61747625       9.11243363      13.23648919
Si       4.06506335      10.27338859      11.89129265
Si       3.94879212       3.69343326       5.62461820
Si       3.94879212       3.69343326       0.64205625
Si       4.06506335      10.27338859       6.90873069
24
Lattice="4.761763662832412 3.1105714394625026 1.3762919707996994e-15 3.314335590050807 10.86646290145931 6.840656339347778e-15 1.78138992156293e-15 -8.512698949398318e-15 12.553437619947601" Properties=species:S:1:pos:R:3 unique_starting_index=172 config_type=initial n_minim_iter=8 stress="0.0005984499206644784 5.34867658754933e-05 -2.562065046299203e-16 5.34867658754933e-05 -3.8068052009082054e-05 -1.6507961967325966e-16 -2.562065046299203e-16 -1.6507961967325966e-16 0.001048613719168272" pbc="T T T"
Si       5.33842196      11.80714836       8.21265595
Si       2.73767729       2.16988597       1.93593714
Si       2.73767729       2.16988597       4.34078167
Si       5.33842196      11.80714836      10.61750048
Si       2.96212259       8.68714236      10.61789013
Si       5.11397666       5.28989198       4.34117132
Si       5.11397666       5.28989198       1.93554749
Si       2.96212259       8.68714236       8.21226630
Si       1.26269459       3.19545476       8.19611685
Si       6.81340466      10.78157958       1.91939804
Si       6.81340466      10.78157958       4.35732077
Si       1.26269459       3.19545476      10.63403958
Si       3.65925238       6.41692738       8.21894630
Si       4.41684687       7.56010696       1.94222749
Si       4.41684687       7.56010696       4.33449132
Si       3.65925238       6.41692738      10.61121013
Si       5.65474528       9.12918395       5.58813861
Si       2.42135397       4.84785038      -0.68858020
Si       2.42135397       4.84785038       6.96529901
Si       5.65474528       9.12918395      13.24201782
Si       4.10840392      10.27419338      11.89579998
Si       3.96769533       3.70284095       5.61908117
Si       3.96769533       3.70284095       0.65763764
Si       4.10840392      10.27419338       6.93435645
24
Lattice="4.760299436871442 3.1154295039930915 1.39192123806611e-15 3.3153309843461742 10.88040618947486 6.832617093290377e-15 1.8276312774249977e-15 -8.501522213862849e-15 12.48143631365109" Properties=species:S:1:pos:R:3 unique_starting_index=172 config_type=initial n_minim_iter=9 stress="-0.0012532608670056168 0.0004153047330824359 -2.4625825537635588e-16 0.0004153047330824359 -0.0008241528417539867 -5.701446745544866e-17 -2.4625825537635588e-16 -5.701446745544866e-17 -0.0032996300026080843" pbc="T T T"
Si       5.33164816      11.84359842       8.16141155
Si       2.74398226       2.15223726       1.92069339
Si       2.74398226       2.15223726       4.32002477
Si       5.33164816      11.84359842      10.56074292
Si       2.94677137       8.69344772      10.56174028
Si       5.12885905       5.30238797       4.32102213
Si       5.12885905       5.30238797       1.91969603
Si       2.94677137       8.69344772       8.16041419
Si       1.26469421       3.21916225       8.15642545
Si       6.81093621      10.77667344       1.91570730
Si       6.81093621      10.77667344       4.32501086
Si       1.26469421       3.21916225      10.56572902
Si       3.65059721       6.42205686       8.16399400
Si       4.42503321       7.57377883       1.92327584
Si       4.42503321       7.57377883       4.31744232
Si       3.65059721       6.42205686      10.55816047
Si       5.65175507       9.14891312       5.56916123
Si       2.42387535       4.84692256      -0.67155693
Si       2.42387535       4.84692256       6.91227509
Si       5.65175507       9.14891312      13.15299324
Si       4.10166083      10.29469415      11.82054631
Si       3.97396959       3.70114153       5.57982816
Si       3.97396959       3.70114153       0.66089000
Si       4.10166083      10.29469415       6.90160816
24
Lattice="4.761043245122091 3.113681811882719 1.3989736416808932e-15 3.3099190738994273 10.883303050636908 6.82340052614275e-15 1.869124585323381e-15 -8.536749360402353e-15 12.495357797101502" Properties=species:S:1:pos:R:3 unique_starting_index=172 config_type=initial n_minim_iter=10 stress="-0.0004484452221992677 0.00017328190631492972 -2.5612807580858626e-16 0.00017328190631492972 -0.00013250455962721399 -1.2287672697510458e-17 -2.5612807580858626e-16 -1.2287672697510458e-17 -0.0014436888626053043" pbc="T T T"
Si       5.32142267      11.86076695       8.16937859
Si       2.74953965       2.13621791       1.92169969
Si       2.74953965       2.13621791       4.32597921
Si       5.32142267      11.86076695      10.57365811
Si       2.93168276       8.69160620      10.57461144
Si       5.13927955       5.30537866       4.32693254
Si       5.13927955       5.30537866       1.92074636
Si       2.93168276       8.69160620       8.16842526
Si       1.26209833       3.23245556       8.16756418
Si       6.80886399      10.76452930       1.91988528
Si       6.80886399      10.76452930       4.32779361
Si       1.26209833       3.23245556      10.57547251
Si       3.64303772       6.42019266       8.16795307
Si       4.42792460       7.57679220       1.92027417
Si       4.42792460       7.57679220       4.32740473
Si       3.64303772       6.42019266      10.57508363
Si       5.64492424       9.15228585       5.58368078
Si       2.42603808       4.84469901      -0.66399812
Si       2.42603808       4.84469901       6.91167702
Si       5.64492424       9.15228585      13.15935592
Si       4.09118498      10.30285808      11.82755307
Si       3.97977734       3.69412678       5.57987417
Si       3.97977734       3.69412678       0.66780473
Si       4.09118498      10.30285808       6.91548363
24
Lattice="4.760130005653763 3.1107843990093986 1.4038744366927619e-15 3.3049566697532238 10.879745984992248 6.81207456092236e-15 1.903974123848293e-15 -8.571651600546953e-15 12.516329273709347" Properties=species:S:1:pos:R:3 unique_starting_index=172 config_type=initial n_minim_iter=11 stress="8.784953778270878e-05 -3.2662420067117104e-05 -1.829392690107868e-16 -3.2662420067117104e-05 8.229647391031226e-05 -4.869487533070762e-17 -1.829392690107868e-16 -4.869487533070762e-17 9.982554139322702e-05" pbc="T T T"
Si       5.31225978      11.86369538       8.18308415
Si       2.75282689       2.12683500       1.92491951
Si       2.75282689       2.12683500       4.33324513
Si       5.31225978      11.86369538      10.59140977
Si       2.92269584       8.68641502      10.59212456
Si       5.14239083       5.30411536       4.33395992
Si       5.14239083       5.30411536       1.92420471
Si       2.92269584       8.68641502       8.18236935
Si       1.25937181       3.23807371       8.18266988
Si       6.80571487      10.75245667       1.92450525
Si       6.80571487      10.75245667       4.33365939
Si       1.25937181       3.23807371      10.59182403
Si       3.63795123       6.41614041       8.18013061
Si       4.42713544       7.57438997       1.92196597
Si       4.42713544       7.57438997       4.33619866
Si       3.63795123       6.41614041      10.59436330
Si       5.63911981       9.14787235       5.59595476
Si       2.42596687       4.84265802      -0.66220988
Si       2.42596687       4.84265802       6.92037451
Si       5.63911981       9.14787235      13.17853915
Si       4.08388238      10.30167297      11.84494634
Si       3.98120430       3.68885741       5.58678170
Si       3.98120430       3.68885741       0.67138293
Si       4.08388238      10.30167297       6.92954757
24
Lattice="4.756565805330565 3.1067179544472756 1.409465837321751e-15 3.297463399017902 10.87315103216384 6.79757876038218e-15 1.945948912131214e-15 -8.61977610805708e-15 12.552259874433723" Properties=species:S:1:pos:R:3 unique_starting_index=172 config_type=initial n_minim_iter=12 stress="0.0006475970446459192 -0.0002479204226828726 -2.019491673558167e-16 -0.0002479204226828726 0.0002547362599739967 5.714995494372854e-17 -2.019491673558167e-16 5.714995494372854e-17 0.0018575469666312536" pbc="T T T"
Si       5.29319460      11.86752177       8.20759087
Si       2.76083460       2.11234721       1.93146093
Si       2.76083460       2.11234721       4.34466900
Si       5.29319460      11.86752177      10.62079894
Si       2.90971425       8.67764817      10.62092278
Si       5.14431496       5.30222081       4.34479285
Si       5.14431496       5.30222081       1.93133709
Si       2.90971425       8.67764817       8.20746703
Si       1.25344510       3.24892676       8.20993903
Si       6.80058411      10.73094222       1.93380909
Si       6.80058411      10.73094222       4.34232085
Si       1.25344510       3.24892676      10.61845078
Si       3.63003687       6.41024590       8.20455949
Si       4.42399233       7.56962308       1.92842955
Si       4.42399233       7.56962308       4.34770039
Si       3.63003687       6.41024590      10.62383032
Si       5.62911033       9.13780137       5.61400879
Si       2.42491887       4.84206761      -0.66212115
Si       2.42491887       4.84206761       6.93825109
Si       5.62911033       9.13780137      13.21438102
Si       4.07335482      10.29706557      11.87640329
Si       3.98067438       3.68280341       5.60027335
Si       3.98067438       3.68280341       0.67585658
Si       4.07335482      10.29706557       6.95198652
24
Lattice="4.7531661373617755 3.1095929611960385 1.4191810861271068e-15 3.3009450234845104 10.874333898832035 6.787621156267737e-15 1.9791250311918596e-15 -8.638264325675708e-15 12.546757305168677" Properties=species:S:1:pos:R:3 unique_starting_index=172 config_type=initial n_minim_iter=13 stress="-0.0001584995219975964 3.298455516178286e-05 -1.660329885454949e-16 3.298455516178286e-05 -4.15056506530669e-05 -3.3939407877968545e-17 -1.660329885454949e-16 -3.3939407877968545e-17 -0.00022165648566686461" pbc="T T T"
Si       5.28631980      11.86975412       8.20642116
Si       2.76779136       2.11417273       1.93304251
Si       2.76779136       2.11417273       4.34033615
Si       5.28631980      11.86975412      10.61371480
Si       2.91371889       8.68041512      10.61384659
Si       5.14039227       5.30351173       4.34046794
Si       5.14039227       5.30351173       1.93291071
Si       2.91371889       8.68041512       8.20628937
Si       1.25082707       3.25504542       8.20851820
Si       6.80328409      10.72888143       1.93513954
Si       6.80328409      10.72888143       4.33823911
Si       1.25082707       3.25504542      10.61161776
Si       3.63161677       6.41432923       8.20834900
Si       4.42249439       7.56959763       1.93497035
Si       4.42249439       7.56959763       4.33840830
Si       3.63161677       6.41432923      10.61178696
Si       5.62945122       9.13541478       5.60706493
Si       2.42465993       4.84851207      -0.66631373
Si       2.42465993       4.84851207       6.93969238
Si       5.62945122       9.13541478      13.21307103
Si       4.07820439      10.29401077      11.87291413
Si       3.97590677       3.68991608       5.59953548
Si       3.97590677       3.68991608       0.67384318
Si       4.07820439      10.29401077       6.94722183
24
Lattice="4.754803855847924 3.1096252368141837 1.4260105178978549e-15 3.3041440040902716 10.871309631707286 6.775016302098679e-15 2.0132793486371725e-15 -8.66440161395159e-15 12.553422693350303" Properties=species:S:1:pos:R:3 unique_starting_index=172 config_type=initial n_minim_iter=14 stress="0.00031347535867019767 -1.365944884725373e-05 -1.6379428063207735e-16 -1.365944884725373e-05 6.291397402549643e-05 -2.4914808051371524e-17 -1.6379428063207735e-16 -2.4914808051371524e-17 -9.347725144442497e-05" pbc="T T T"
Si       5.28562090      11.86975199       8.21274188
Si       2.77332696       2.11118287       1.93603054
Si       2.77332696       2.11118287       4.34068081
Si       5.28562090      11.86975199      10.61739216
Si       2.91086786       8.68210228      10.61864311
Si       5.14808000       5.29883258       4.34193177
Si       5.14808000       5.29883258       1.93477958
Si       2.91086786       8.68210228       8.21149093
Si       1.25168536       3.26106437       8.21173651
Si       6.80726250      10.71987049       1.93502517
Si       6.80726250      10.71987049       4.34168618
Si       1.25168536       3.26106437      10.61839753
Si       3.63011304       6.41504437       8.21335688
Si       4.42883481       7.56589049       1.93664553
Si       4.42883481       7.56589049       4.34006582
Si       3.63011304       6.41504437      10.61677716
Si       5.63102950       9.13350862       5.61169135
Si       2.42791835       4.84742625      -0.66501999
Si       2.42791835       4.84742625       6.94173134
Si       5.63102950       9.13350862      13.21844269
Si       4.08031290      10.29036166      11.87757913
Si       3.97863496       3.69057320       5.60086778
Si       3.97863496       3.69057320       0.67584357
Si       4.08031290      10.29036166       6.95255491
24
Lattice="4.752476139505289 3.1090648600331563 1.429280427552157e-15 3.3044554504062758 10.866420886213568 6.766968865582865e-15 2.0305003772016505e-15 -8.683314637369354e-15 12.566774849583357" Properties=species:S:1:pos:R:3 unique_starting_index=172 config_type=initial n_minim_iter=15 stress="8.824451814828372e-05 -1.6259788667086334e-05 -1.7612500721590582e-16 -1.6259788667086334e-05 3.205972577315748e-05 -7.877691640341232e-17 -1.7612500721590582e-16 -7.877691640341232e-17 2.0894847385643005e-05" pbc="T T T"
Si       5.28096496      11.86477290       8.22366406
Si       2.77596663       2.11071285       1.94027664
Si       2.77596663       2.11071285       4.34311078
Si       5.28096496      11.86477290      10.62649821
Si       2.90693131       8.68307284      10.62844099
Si       5.15000027       5.29241290       4.34505357
Si       5.15000027       5.29241290       1.93833386
Si       2.90693131       8.68307284       8.22172128
Si       1.25175402       3.26405822       8.22036374
Si       6.80517756      10.71142752       1.93697631
Si       6.80517756      10.71142752       4.34641111
Si       1.25175402       3.26405822      10.62979854
Si       3.62610896       6.41534591       8.22352086
Si       4.43082262       7.56013983       1.94013343
Si       4.43082262       7.56013983       4.34325399
Si       3.62610896       6.41534591      10.62664142
Si       5.62889272       9.12845341       5.61692333
Si       2.42803886       4.84703233      -0.66646410
Si       2.42803886       4.84703233       6.94985152
Si       5.62889272       9.12845341      13.23323895
Si       4.07970745      10.28437289      11.89095632
Si       3.97722414       3.69111285       5.60756889
Si       3.97722414       3.69111285       0.67581853
Si       4.07970745      10.28437289       6.95920596
24
Lattice="4.749280751821903 3.107232388641517 1.4323679705901585e-15 3.3041368981973536 10.857123584830449 6.7552468707935215e-15 2.051369393288599e-15 -8.709434253880636e-15 12.588582318649312" Properties=species:S:1:pos:R:3 unique_starting_index=172 config_type=initial n_minim_iter=16 stress="-0.00019118401886222345 2.5768735544590393e-05 -1.295065672079525e-16 2.5768735544590393e-05 -4.8411584879343526e-05 -5.705683421423772e-17 -1.295065672079525e-16 -5.705683421423772e-17 0.0001786212921472778" pbc="T T T"
Si       5.27229105      11.85381096       8.24091047
Si       2.78112660       2.11054500       1.94661931
Si       2.78112660       2.11054500       4.34767185
Si       5.27229105      11.85381096      10.64196301
Si       2.89927144       8.68494043      10.64407679
Si       5.15414621       5.27941554       4.34978564
Si       5.15414621       5.27941554       1.94450552
Si       2.89927144       8.68494043       8.23879668
Si       1.25052220       3.26630997       8.23596217
Si       6.80289545      10.69804600       1.94167101
Si       6.80289545      10.69804600       4.35262015
Si       1.25052220       3.26630997      10.64691131
Si       3.61960057       6.41683238       8.24002994
Si       4.43381708       7.54752359       1.94573878
Si       4.43381708       7.54752359       4.34855238
Si       3.61960057       6.41683238      10.64284354
Si       5.62524777       9.11760080       5.62561282
Si       2.42816988       4.84675517      -0.66867834
Si       2.42816988       4.84675517       6.96296950
Si       5.62524777       9.11760080      13.25726066
Si       4.07773016      10.27443466      11.91317147
Si       3.97568749       3.68992131       5.61888031
Si       3.97568749       3.68992131       0.67541085
Si       4.07773016      10.27443466       6.96970201
24
Lattice="4.750167790847955 3.1053768957392456 1.4344636506387704e-15 3.301043932691542 10.856268354811709 6.7502686205225385e-15 2.0673844436037435e-15 -8.717775481127053e-15 12.585067523824108" Properties=species:S:1:pos:R:3 unique_starting_index=172 config_type=initial n_minim_iter=17 stress="9.77620906349428e-07 -1.6236781392312923e-05 -1.3703191759560351e-16 -1.6236781392312923e-05 -2.3121107889200552e-05 -1.0117945643375905e-16 -1.3703191759560351e-16 -1.0117945643375905e-16 -8.117772733343003e-06" pbc="T T T"
Si       5.26708350      11.85205378       8.23709154
Si       2.78412822       2.10959146       1.94455778
Si       2.78412822       2.10959146       4.34797598
Si       5.26708350      11.85205378      10.64050974
Si       2.89375163       8.68727226      10.64088581
Si       5.15746009       5.27437299       4.34835205
Si       5.15746009       5.27437299       1.94418171
Si       2.89375163       8.68727226       8.23671547
Si       1.24709222       3.26383761       8.23688513
Si       6.80411950      10.69780764       1.94435137
Si       6.80411950      10.69780764       4.34818239
Si       1.24709222       3.26383761      10.64071615
Si       3.61798680       6.42036355       8.23705605
Si       4.43322492       7.54128169       1.94452228
Si       4.43322492       7.54128169       4.34801148
Si       3.61798680       6.42036355      10.64054524
Si       5.62333431       9.11449383       5.62541479
Si       2.42787741       4.84715141      -0.66711897
Si       2.42787741       4.84715141       6.95965274
Si       5.62333431       9.11449383      13.25218650
Si       4.07382334      10.27582636      11.90972065
Si       3.97738838       3.68581889       5.61718689
Si       3.97738838       3.68581889       0.67534687
Si       4.07382334      10.27582636       6.96788063
24
Lattice="4.750531886793843 3.1065929875742806 1.4391321002930713e-15 3.301368568822902 10.860414285294338 6.747681015361721e-15 2.0850073938581885e-15 -8.726705023920496e-15 12.58075052963234" Properties=species:S:1:pos:R:3 unique_starting_index=172 config_type=initial n_minim_iter=18 stress="1.926589628843894e-05 6.053987150243105e-05 -9.809034158904287e-17 6.053987150243105e-05 5.4879365848138155e-05 -1.9621862681275703e-17 -9.809034158904287e-17 -1.9621862681275703e-17 -1.8555179922889048e-06" pbc="T T T"
Si       5.26510774      11.85867683       8.23402572
Si       2.78679271       2.10833043       1.94365045
Si       2.78679271       2.10833043       4.34672481
Si       5.26510774      11.85867683      10.63710008
Si       2.89189743       8.69201814      10.63732725
Si       5.16000303       5.27498913       4.34695199
Si       5.16000303       5.27498913       1.94342328
Si       2.89189743       8.69201814       8.23379854
Si       1.24564859       3.26584833       8.23361404
Si       6.80625187      10.70115894       1.94323877
Si       6.80625187      10.70115894       4.34713649
Si       1.24564859       3.26584833      10.63751175
Si       3.61773917       6.42622981       8.23339658
Si       4.43416129       7.54077746       1.94302132
Si       4.43416129       7.54077746       4.34735395
Si       3.61773917       6.42622981      10.63772921
Si       5.62330232       9.11878518       5.62223909
Si       2.42859814       4.84822209      -0.66813617
Si       2.42859814       4.84822209       6.95851144
Si       5.62330232       9.11878518      13.24888670
Si       4.07371638      10.27965509      11.90638596
Si       3.97818408       3.68735217       5.61601070
Si       3.97818408       3.68735217       0.67436457
Si       4.07371638      10.27965509       6.96473983
24
Lattice="4.75035748730739 3.1067549309679934 1.4419383664308838e-15 3.3003315856723465 10.862373812396715 6.7454840726021715e-15 2.0970053187458214e-15 -8.732295918538796e-15 12.57693739629642" Properties=species:S:1:pos:R:3 unique_starting_index=172 config_type=initial n_minim_iter=19 stress="-5.956591613706137e-06 1.1244833117024623e-05 -1.3834186996284037e-16 1.1244833117024623e-05 9.628663581077553e-06 -6.306394401932117e-17 -1.3834186996284037e-16 -6.306394401932117e-17 7.590043436443182e-06" pbc="T T T"
Si       5.26258851      11.86150271       8.23101364
Si       2.78810056       2.10762602       1.94254494
Si       2.78810056       2.10762602       4.34592375
Si       5.26258851      11.86150271      10.63439245
Si       2.88984506       8.69493388      10.63454371
Si       5.16084401       5.27419486       4.34607501
Si       5.16084401       5.27419486       1.94239369
Si       2.88984506       8.69493388       8.23086239
Si       1.24436234       3.26622521       8.23074718
Si       6.80632673      10.70290353       1.94227848
Si       6.80632673      10.70290353       4.34619022
Si       1.24436234       3.26622521      10.63465892
Si       3.61680074       6.43001009       8.23007592
Si       4.43388833       7.53911865       1.94160722
Si       4.43388833       7.53911865       4.34686148
Si       3.61680074       6.43001009      10.63533018
Si       5.62273269       9.12051903       5.61907674
Si       2.42795638       4.84860970      -0.66939196
Si       2.42795638       4.84860970       6.95786065
Si       5.62273269       9.12051903      13.24632935
Si       4.07283612      10.28101220      11.90389811
Si       3.97785296       3.68811654       5.61542941
Si       3.97785296       3.68811654       0.67303928
Si       4.07283612      10.28101220       6.96150798
24
Lattice="4.750896335361775 3.1075998609054687 1.4475250356562092e-15 3.3002642503442807 10.866001106298866 6.7408688147914485e-15 2.119847206172556e-15 -8.742459903974921e-15 12.568806139621172" Properties=species:S:1:pos:R:3 unique_starting_index=172 config_type=initial n_minim_iter=20 stress="-9.285454796052413e-06 -4.104947826183604e-05 -8.506619889698993e-17 -4.104947826183604e-05 -5.037852802584775e-05 -3.6762163740786034e-17 -8.506619889698993e-17 -3.6762163740786034e-17 2.514516868503749e-05" pbc="T T T"
Si       5.26096120      11.86661882       8.22453815
Si       2.79019939       2.10698215       1.94013508
Si       2.79019939       2.10698215       4.34426799
Si       5.26096120      11.86661882      10.62867106
Si       2.88814949       8.69965620      10.62879882
Si       5.16301110       5.27394476       4.34439575
Si       5.16301110       5.27394476       1.94000732
Si       2.88814949       8.69965620       8.22441038
Si       1.24268816       3.26698341       8.22431859
Si       6.80847242      10.70661755       1.93991552
Si       6.80847242      10.70661755       4.34448755
Si       1.24268816       3.26698341      10.62889062
Si       3.61618283       6.43556868       8.22327647
Si       4.43497775       7.53803228       1.93887340
Si       4.43497775       7.53803228       4.34552967
Si       3.61618283       6.43556868      10.62993274
Si       5.62389576       9.12282228       5.61358956
Si       2.42726482       4.85077868      -0.67081351
Si       2.42726482       4.85077868       6.95521658
Si       5.62389576       9.12282228      13.23961965
Si       4.07348990      10.28377000      11.89753221
Si       3.97767069       3.68983097       5.61312914
Si       3.97767069       3.68983097       0.67127393
Si       4.07348990      10.28377000       6.95567700
24
Lattice="4.752055353840883 3.1087292559729245 1.453951777361305e-15 3.3023350157992244 10.868026843215892 6.733712525596423e-15 2.1466186244250435e-15 -8.75697697338749e-15 12.563757650166735" Properties=species:S:1:pos:R:3 unique_starting_index=172 config_type=initial n_minim_iter=21 stress="-1.8580884488065548e-06 3.97013987424779e-06 -2.352580601828833e-18 3.97013987424779e-06 8.634252390719639e-06 3.535935474503722e-18 -2.352580601828833e-18 3.535935474503722e-18 5.616366979675207e-07" pbc="T T T"
Si       5.26372843      11.86961312       8.22049266
Si       2.79066193       2.10714298       1.93861384
Si       2.79066193       2.10714298       4.34326499
Si       5.26372843      11.86961312      10.62514381
Si       2.88949962       8.70103117      10.62536931
Si       5.16489074       5.27572492       4.34349049
Si       5.16489074       5.27572492       1.93838834
Si       2.88949962       8.70103117       8.22026716
Si       1.24265144       3.26803349       8.22015829
Si       6.81173892      10.70872260       1.93827947
Si       6.81173892      10.70872260       4.34359936
Si       1.24265144       3.26803349      10.62547818
Si       3.61698712       6.43640717       8.21947564
Si       4.43740324       7.54034893       1.93759682
Si       4.43740324       7.54034893       4.34428201
Si       3.61698712       6.43640717      10.62616083
Si       5.62668596       9.12331569       5.61191800
Si       2.42770441       4.85344040      -0.66996083
Si       2.42770441       4.85344040       6.95183965
Si       5.62668596       9.12331569      13.23371848
Si       4.07620823      10.28588874      11.89227125
Si       3.97818214       3.69086735       5.61039243
Si       3.97818214       3.69086735       0.67148640
Si       4.07620823      10.28588874       6.95336522
