22
Lattice="8.896657893249566 4.088284158181891e-14 -7.042629426461528e-15 4.448328946624748 7.704731744333491 2.982019584434298e-15 4.4483289466247795 2.568243914777835 8.98333663699935" Properties=species:S:1:pos:R:3 unique_starting_index=186 config_type=initial n_minim_iter=1 energy=-3573.5716275051827 free_energy=-3573.5716275051827 pbc="T T T"
Si      12.51803034       5.01602537       2.25919524
Si       6.98164812       2.06051852       2.25919524
Si       7.19029522       8.33291959       2.25919524
Si       7.50732740       5.74880893       3.34810992
Si      10.12160877       6.03352278       3.34810992
Si       9.06103751       3.62713178       3.34810992
Si       3.35708007       3.54115089       4.37412424
Si       5.83651554       3.02683968       4.37412424
Si       4.15139123       1.13674118       4.37412424
Si       6.15337608       5.30192153       5.26224334
Si      10.41156858       7.42952272       5.26224334
Si      10.12502901       2.67801924       5.26224334
Si       5.92839413       4.35900540       2.34715551
Si       5.25914129       0.39108912       2.34715551
Si       2.15745141       2.95463722       2.34715551
Si       3.29555721       3.64030802       0.26556838
Si       5.95314957       3.03054147       0.26556838
Si       4.09628006       1.03388225       0.26556838
Si       6.39944904       7.88534691       4.42862742
Si      12.52584411       5.92470459       4.42862742
Si       7.76468052       1.59941199       4.42862742
Si      13.34498684       7.70473174       5.89501266
22
Lattice="8.927662941000404 4.2116161145422865e-14 -7.080133886465634e-15 4.463831470500168 7.731582903331268 3.4215380169405777e-15 4.463831470500198 2.5771943011104277 9.019332995768078" Properties=species:S:1:pos:R:3 unique_starting_index=186 config_type=initial n_minim_iter=2 stress="0.0008881839417448808 -4.253221389782241e-17 4.1908051429720195e-18 -4.253221389782241e-17 0.0008881839417451548 -1.2572415428916057e-17 4.1908051429720195e-18 -1.2572415428916057e-17 -0.00014579411808078423" pbc="T T T"
Si      12.56109501       5.03385915       2.26830266
Si       7.00656533       2.06800885       2.26830266
Si       7.21532847       8.36129781       2.26830266
Si       7.53372857       5.76913016       3.36109305
Si      10.15701193       6.05420039       3.36109305
Si       9.09224831       3.63983525       3.36109305
Si       3.36912352       3.55309388       4.39150823
Si       5.85633927       3.03728940       4.39150823
Si       4.16603162       1.14119962       4.39150823
Si       6.17467059       5.32040423       5.28411364
Si      10.44793287       7.45554210       5.28411364
Si      10.16038536       2.68721948       5.28411364
Si       5.94914013       4.37421409       2.35647784
Si       5.27744193       0.39236938       2.35647784
Si       2.16491235       2.96499943       2.35647784
Si       3.30692138       3.65303975       0.26672417
Si       5.97399600       3.04118511       0.26672417
Si       4.11057703       1.03735805       0.26672417
Si       6.42148429       7.91294654       4.44614732
Si      12.56973351       5.94552401       4.44614732
Si       7.79177102       1.60469526       4.44614732
Si      13.39149441       7.73158290       5.91849477
22
Lattice="8.856778978483497 4.14450392904188e-14 -7.182359766610767e-15 4.428389489241716 7.670195591070722 3.360358294537092e-15 4.428389489241745 2.5567318636902447 9.160165270675094" Properties=species:S:1:pos:R:3 unique_starting_index=186 config_type=initial n_minim_iter=3 stress="-0.001870829456081148 4.60303609787046e-17 7.493314577928655e-18 4.60303609787046e-17 -0.0018708294560807826 2.435327237826813e-17 7.493314577928655e-18 2.435327237826813e-17 0.0033057900557257455" pbc="T T T"
Si      12.44905842       5.00021599       2.30642723
Si       6.96256384       2.05908234       2.30642723
Si       7.15871467       8.28109285       2.30642723
Si       7.47843332       5.72917347       3.40387433
Si      10.07917208       5.99929121       3.40387433
Si       9.01273153       3.61192650       3.40387433
Si       3.35023850       3.51529141       4.45420665
Si       5.79760190       3.01115824       4.45420665
Si       4.13732807       1.14374595       4.45420665
Si       6.12063265       5.27829002       5.38219880
Si      10.36759590       7.40062281       5.38219880
Si      10.08210838       2.66147835       5.38219880
Si       5.90319163       4.33810599       2.39270086
Si       5.23370367       0.38882868       2.39270086
Si       2.14827317       2.94326092       2.39270086
Si       3.27868577       3.62375539       0.27701395
Si       5.92731083       3.01889273       0.27701395
Si       4.07917187       1.02754747       0.27701395
Si       6.36572737       7.85366468       4.50965043
Si      12.47538842       5.90067722       4.50965043
Si       7.72922114       1.58604928       4.50965043
Si      13.28516847       7.67019559       6.00388590
22
Lattice="8.878915261020996 4.023797912524845e-14 -7.200990069441788e-15 4.439457630510466 7.689366174093546 3.4390019938793486e-15 4.4394576305104945 2.563122058031186 9.08283897843023" Properties=species:S:1:pos:R:3 unique_starting_index=186 config_type=initial n_minim_iter=4 stress="-0.0006277075402887548 -3.54489479690362e-17 2.1036623163443198e-17 -3.54489479690362e-17 -0.0006277075402885258 -6.624298357850199e-18 2.1036623163443198e-17 -6.624298357850199e-18 0.000123694618873049" pbc="T T T"
Si      12.45787184       5.02484947       2.29267587
Si       7.00162663       2.07747412       2.29267587
Si       7.17724731       8.27640875       2.29267587
Si       7.50262809       5.75377824       3.35969109
Si      10.11051934       6.00437671       3.35969109
Si       9.02359835       3.62057740       3.35969109
Si       3.36992581       3.50843360       4.40327022
Si       5.79288735       3.01670801       4.40327022
Si       4.15555973       1.16422456       4.40327022
Si       6.12829175       5.29267195       5.36358623
Si      10.39835775       7.42514003       5.36358623
Si      10.11009628       2.66092036       5.36358623
Si       5.92001985       4.34582937       2.37166878
Si       5.24304635       0.38956391       2.37166878
Si       2.15530670       2.95397289       2.37166878
Si       3.28301917       3.63242592       0.28762111
Si       5.94372117       3.02997521       0.28762111
Si       4.09163255       1.02696505       0.28762111
Si       6.37377993       7.87961573       4.45967136
Si      12.51597269       5.91906914       4.45967136
Si       7.74699316       1.58004748       4.45967136
Si      13.31837289       7.68936617       5.94133430
22
Lattice="8.891287448148915 3.983951737896953e-14 -7.241119937472936e-15 4.445643724074426 7.700080802446702 3.4856583577036813e-15 4.445643724074457 2.5666936008155723 9.067770060876416" Properties=species:S:1:pos:R:3 unique_starting_index=186 config_type=initial n_minim_iter=5 stress="0.0016058886817010127 1.83304726330271e-18 6.795687415171022e-18 1.83304726330271e-18 0.0016058886817015621 4.9447567639336516e-17 6.795687415171022e-18 4.9447567639336516e-17 -0.0012586580216171687" pbc="T T T"
Si      12.45116124       5.05067096       2.29236965
Si       7.03971619       2.09180418       2.29236965
Si       7.18298491       8.25768645       2.29236965
Si       7.50765106       5.77429135       3.34283167
Si      10.13814492       6.01119939       3.34283167
Si       9.02806637       3.61467086       3.34283167
Si       3.37635579       3.50712019       4.37583152
Si       5.79472101       3.02251082       4.37583152
Si       4.16585437       1.17044979       4.37583152
Si       6.13146625       5.30338997       5.38169810
Si      10.41842476       7.43846108       5.38169810
Si      10.12397133       2.65831055       5.38169810
Si       5.92422961       4.35820823       2.36796921
Si       5.25784796       0.39044334       2.36796921
Si       2.15485360       2.95142923       2.36796921
Si       3.28227363       3.63979608       0.30398804
Si       5.95666278       3.03765041       0.30398804
Si       4.09799476       1.02263430       0.30398804
Si       6.37666983       7.89976224       4.44018654
Si      12.54434732       5.92792242       4.44018654
Si       7.75284519       1.57247695       4.44018654
Si      13.33693117       7.70008080       5.91923086
22
Lattice="8.81401606311986 4.090816623540887e-14 -7.246035849011476e-15 4.407008031559897 7.633161820025931 3.652583629661337e-15 4.407008031559928 2.5443872733419823 9.243821618414463" Properties=species:S:1:pos:R:3 unique_starting_index=186 config_type=initial n_minim_iter=6 stress="0.0013936182295387536 5.5161852935746924e-17 -2.1645225464269625e-17 5.5161852935746924e-17 0.001393618229539302 5.891071672749672e-17 -2.1645225464269625e-17 5.891071672749672e-17 0.0013054023620977376" pbc="T T T"
Si      12.30916029       5.04531020       2.33289009
Si       7.02880273       2.08362303       2.33289009
Si       7.10408517       8.13739040       2.33289009
Si       7.40954177       5.74366374       3.40817107
Si      10.08340388       5.97764037       3.40817107
Si       8.94910254       3.54501953       3.40817107
Si       3.32573806       3.48816241       4.42053354
Si       5.76497626       3.00890697       4.42053354
Si       4.13030977       1.13609244       4.42053354
Si       6.07861303       5.26713568       5.51521981
Si      10.33618285       7.36852249       5.51521981
Si      10.02725230       2.63066546       5.51521981
Si       5.85144102       4.34982934       2.41360524
Si       5.24835023       0.39075058       2.41360524
Si       2.12123284       2.89258190       2.41360524
Si       3.24443478       3.61745499       0.34147197
Si       5.91759856       3.01467139       0.34147197
Si       4.05899076       1.00103545       0.34147197
Si       6.31701623       7.84807111       4.51485509
Si      12.45213690       5.87159155       4.51485509
Si       7.67289506       1.54666097       4.51485509
Si      13.22102409       7.63316182       6.01933949
22
Lattice="8.703733333571096 4.03634044879696e-14 -7.261790076590307e-15 4.351866666785514 7.537654174638008 3.976780670229872e-15 4.351866666785545 2.5125513915460087 9.425870047523215" Properties=species:S:1:pos:R:3 unique_starting_index=186 config_type=initial n_minim_iter=7 stress="-0.0009788236303405675 -1.0323211893311885e-18 4.896793119827507e-17 -1.0323211893311885e-18 -0.0009788236303402457 7.657130213039163e-17 4.896793119827507e-17 7.657130213039163e-17 -0.0006032323948503902" pbc="T T T"
Si      12.10902769       5.04197900       2.36989521
Si       7.01570139       2.06759326       2.36989521
Si       6.98647092       7.96573609       2.36989521
Si       7.26500366       5.69807343       3.49011334
Si      10.00590784       5.93459390       3.49011334
Si       8.84028849       3.44264102       3.49011334
Si       3.24664091       3.45698724       4.44668690
Si       5.72238498       2.99748705       4.44668690
Si       4.08657411       1.08317989       4.44668690
Si       6.00874004       5.21732605       5.65351408
Si      10.21770021       7.26292380       5.65351408
Si       9.88475974       2.59505850       5.65351408
Si       5.73723730       4.33980139       2.45124435
Si       5.24162627       0.39916023       2.45124435
Si       2.07673643       2.79869255       2.45124435
Si       3.18945747       3.58780221       0.40044912
Si       5.86426579       2.98160187       0.40044912
Si       4.00187674       0.96825009       0.40044912
Si       6.23214129       7.77373128       4.59186045
Si      12.31991146       5.79125003       4.59186045
Si       7.55914725       1.51032704       4.59186045
Si      13.05560000       7.53765417       6.12257902
22
Lattice="8.585715837786625 4.0416723053296714e-14 -7.052023462204817e-15 4.292857918893279 7.435448025197637 4.141749140511357e-15 4.2928579188933105 2.4784826750658846 9.736088643730428" Properties=species:S:1:pos:R:3 unique_starting_index=186 config_type=initial n_minim_iter=8 stress="-0.001201226457824932 9.77971460606521e-17 1.982736659859796e-17 9.77971460606521e-17 -0.0012012264578242918 6.251872350909266e-17 1.982736659859796e-17 6.251872350909266e-17 0.001111448861526443" pbc="T T T"
Si      11.90224472       5.05008726       2.44005021
Si       7.00809734       2.03820613       2.44005021
Si       6.84680545       7.78260266       2.44005021
Si       7.12228275       5.63314654       3.66370136
Si       9.90302247       5.88624499       3.66370136
Si       8.73184230       3.35150452       3.66370136
Si       3.15720369       3.38109865       4.53254290
Si       5.64237340       3.01068010       4.53254290
Si       4.07899667       1.04366927       4.53254290
Si       5.94931358       5.16603752       5.82781295
Si      10.08497878       7.13562059       5.82781295
Si       9.72285515       2.56923794       5.82781295
Si       5.58908453       4.31859703       2.47631602
Si       5.23833039       0.43586032       2.47631602
Si       2.05115883       2.68099068       2.47631602
Si       3.12863017       3.56039782       0.48701429
Si       5.81193779       2.94577591       0.48701429
Si       3.93800580       0.92927430       0.48701429
Si       6.13525614       7.69128611       4.74420948
Si      12.17893693       5.71196532       4.74420948
Si       7.44295444       1.46764462       4.74420948
Si      12.87857376       7.43544802       6.33118238
22
Lattice="8.520716365439032 3.8582047493370216e-14 -6.5331320534535164e-15 4.260358182719486 7.379156830912036 5.548243414000568e-15 4.260358182719515 2.459718943637351 9.914428748042484" Properties=species:S:1:pos:R:3 unique_starting_index=186 config_type=initial n_minim_iter=9 stress="-0.0007236155068325371 6.500586607428167e-18 -8.388428197530593e-17 6.500586607428167e-18 -0.00072361550683199 2.0142913569866458e-16 -8.388428197530593e-17 2.0142913569866458e-16 0.001820599810745303" pbc="T T T"
Si      11.76676382       5.07339713       2.49043382
Si       7.03102525       2.03129871       2.49043382
Si       6.76436002       7.65361783       2.49043382
Si       7.04624866       5.59716864       3.75523288
Si       9.84488227       5.85749900       3.75523288
Si       8.67101817       3.30364602       3.75523288
Si       3.11072426       3.32047059       4.56295393
Si       5.58060794       3.02495530       4.56295393
Si       4.08974235       1.03373093       4.56295393
Si       5.91446875       5.14045422       5.94837803
Si      10.01524592       7.06600636       5.94837803
Si       9.63243441       2.55185308       5.94837803
Si       5.50699781       4.30769429       2.48377904
Si       5.23743197       0.45610968       2.48377904
Si       2.03664477       2.61535286       2.48377904
Si       3.09083873       3.54913291       0.55429294
Si       5.78857808       2.92784552       0.55429294
Si       3.90165774       0.90217840       0.55429294
Si       6.07501738       7.65414644       4.82044424
Si      12.11189294       5.67012106       4.82044424
Si       7.37523877       1.43404616       4.82044424
Si      12.78107455       7.37915683       6.44383759
22
Lattice="8.5553170988225 3.913286705692469e-14 -6.521960476506734e-15 4.277658549411219 7.409121945011691 5.3942533943589825e-15 4.27765854941125 2.4697073150039026 9.85963853009816" Properties=species:S:1:pos:R:3 unique_starting_index=186 config_type=initial n_minim_iter=10 stress="0.0007958981472289828 2.913333687121716e-17 -1.3651810600933162e-16 2.913333687121716e-17 0.0007958981472293465 1.8812319357694495e-16 -1.3651810600933162e-16 1.8812319357694495e-16 -0.0005838256808651399" pbc="T T T"
Si      11.81564984       5.10398619       2.49108914
Si       7.06767388       2.03359788       2.49108914
Si       6.78262758       7.68065983       2.49108914
Si       7.09202808       5.59246061       3.75220531
Si       9.85251602       5.88013711       3.75220531
Si       8.72140720       3.34564617       3.75220531
Si       3.12216186       3.29572214       4.54236763
Si       5.57075671       3.05738939       4.54236763
Si       4.14005707       1.05601042       4.54236763
Si       5.94827739       5.16158329       5.88957814
Si      10.05124065       7.08609291       5.88957814
Si       9.66643325       2.57056769       5.88957814
Si       5.52634569       4.31407480       2.44624138
Si       5.25058408       0.46612879       2.44624138
Si       2.05604588       2.62891835       2.44624138
Si       3.10349299       3.57005177       0.55526738
Si       5.81766757       2.93639229       0.55526738
Si       3.91181508       0.90267789       0.55526738
Si       6.09475571       7.68578038       4.79749812
Si      12.16402030       5.69714043       4.79749812
Si       7.40717529       1.43532308       4.79749812
Si      12.83297565       7.40912194       6.42393129
22
Lattice="8.492628917937882 3.921957882967243e-14 -5.904107020213114e-15 4.246314458968907 7.354832387848578 4.8104705781863056e-15 4.246314458968939 2.451610795949532 10.03036268923559" Properties=species:S:1:pos:R:3 unique_starting_index=186 config_type=initial n_minim_iter=11 stress="0.002633897887518306 2.0290098316246042e-17 -1.0207071292714166e-16 2.0290098316246042e-17 0.0026338978875187144 2.484429505622441e-16 -1.0207071292714166e-16 2.484429505622441e-16 -0.0009504999898656037" pbc="T T T"
Si      11.66869878       5.15481423       2.58234909
Si       7.12247960       2.02686809       2.58234909
Si       6.68670837       7.52798245       2.58234909
Si       7.03996543       5.50029700       3.83291112
Si       9.73604314       5.86272737       3.83291112
Si       8.70187819       3.34664040       3.83291112
Si       3.06210175       3.19437086       4.55396706
Si       5.48166989       3.10578905       4.55396706
Si       4.19517173       1.05467248       4.55396706
Si       5.92456997       5.13925269       6.00411440
Si       9.98106731       7.00921033       6.00411440
Si       9.57224946       2.56120176       6.00411440
Si       5.46663528       4.29921482       2.45323627
Si       5.23622607       0.47097995       2.45323627
Si       2.03608203       2.58463762       2.45323627
Si       3.07433455       3.58259453       0.61812956
Si       5.81176506       2.90108330       0.61812956
Si       3.85284376       0.87115456       0.61812956
Si       6.03147608       7.66248474       4.85240878
Si      12.11279731       5.65501090       4.85240878
Si       7.33361336       1.39216914       4.85240878
Si      12.73894338       7.35483239       6.53790542
22
Lattice="8.407651935431273 4.1008149405618815e-14 -6.2027914459602075e-15 4.203825967715599 7.281240162260912 7.689921422991039e-15 4.203825967715632 2.4270800540869817 10.214566995884216" Properties=species:S:1:pos:R:3 unique_starting_index=186 config_type=initial n_minim_iter=12 stress="0.0024163491953446844 -4.287728949839396e-17 -6.036554215094803e-17 -4.287728949839396e-17 0.002416349195345139 2.613472883711632e-16 -6.036554215094803e-17 2.613472883711632e-16 -0.0007386622277183465" pbc="T T T"
Si      11.52922400       5.15927787       2.67167715
Si       7.11110563       1.99824052       2.67167715
Si       6.58262617       7.40496194       2.67167715
Si       6.97009865       5.37421232       3.92614755
Si       9.57680700       5.83909166       3.92614755
Si       8.67605015       3.34917634       3.92614755
Si       2.97907840       3.11778804       4.59991904
Si       5.41437041       3.14238856       4.59991904
Si       4.21802909       1.02106356       4.59991904
Si       5.89217165       5.09783127       6.09522177
Si       9.87641749       6.91079436       6.09522177
Si       9.45436666       2.55385470       6.09522177
Si       5.40867029       4.26924083       2.48554351
Si       5.19676184       0.46257388       2.48554351
Si       2.00604577       2.54942545       2.48554351
Si       3.05284962       3.58828020       0.64506045
Si       5.78494297       2.84325474       0.64506045
Si       3.77368531       0.84970522       0.64506045
Si       5.96531535       7.60729092       4.92673802
Si      12.01310145       5.59272023       4.92673802
Si       7.24453900       1.36246917       4.92673802
Si      12.61147790       7.28124016       6.67008034
22
Lattice="8.345785774696399 3.944898456526071e-14 -7.109231249805858e-15 4.172892887348162 7.227662495429903 8.360614349688561e-15 4.172892887348196 2.4092208318099804 10.319928155979818" Properties=species:S:1:pos:R:3 unique_starting_index=186 config_type=initial n_minim_iter=13 stress="0.00045541950415735425 -4.84215059952646e-17 1.1949321921483345e-17 -4.84215059952646e-17 0.00045541950415803914 2.534326335884751e-16 1.1949321921483345e-17 2.534326335884751e-16 0.0009131897689959529" pbc="T T T"
Si      11.44791172       5.13041491       2.70906773
Si       7.06489956       1.97593516       2.70906773
Si       6.52454604       7.34897492       2.70906773
Si       6.91965754       5.30512940       3.97108962
Si       9.48033383       5.81016107       3.97108962
Si       8.63736594       3.34003452       3.97108962
Si       2.93131451       3.09346035       4.64263452
Si       5.38625088       3.14233949       4.64263452
Si       4.20111327       0.99186266       4.64263452
Si       5.86281484       5.06098336       6.15084813
Si       9.79731851       6.84748672       6.15084813
Si       9.37722397       2.54685491       6.15084813
Si       5.37629457       4.23738199       2.51412938
Si       5.15442606       0.45296382       2.51412938
Si       1.98795804       2.53731668       2.51412938
Si       3.04278385       3.58065065       0.64881262
Si       5.75243539       2.80220906       0.64881262
Si       3.72345942       0.84480279       0.64881262
Si       5.92286301       7.55646028       4.97557289
Si      11.92844083       5.54774502       4.97557289
Si       7.18605348       1.35111969       4.97557289
Si      12.51867866       7.22766250       6.73778830
22
Lattice="8.23775126098707 3.757864797066285e-14 -9.407107183623883e-15 4.118875630493496 7.134101862072128 9.308732089208357e-15 4.11887563049353 2.3780339540240556 10.461056162554462" Properties=species:S:1:pos:R:3 unique_starting_index=186 config_type=initial n_minim_iter=14 stress="-0.002967905803282921 2.3476322566826616e-18 6.428900641377134e-17 2.3476322566826616e-18 -0.0029679058032823663 4.2997787716626285e-16 6.428900641377134e-17 4.2997787716626285e-16 0.000350877141554966" pbc="T T T"
Si      11.30942520       5.08836525       2.75417765
Si       6.98969223       1.92977157       2.75417765
Si       6.41413635       7.25006690       2.75417765
Si       6.82548033       5.19146101       4.04066764
Si       9.32094821       5.76143385       4.04066764
Si       8.56682523       3.31530886       4.04066764
Si       2.83332878       3.05963505       4.69244860
Si       5.35193292       3.15054964       4.69244860
Si       4.17136519       0.92391718       4.69244860
Si       5.82895574       4.99567646       6.23073944
Si       9.64965612       6.72234174       6.23073944
Si       9.23464192       2.55018552       6.23073944
Si       5.31569994       4.17306013       2.53339488
Si       5.07500175       0.44404061       2.53339488
Si       1.96592521       2.51700112       2.53339488
Si       3.03634496       3.58138285       0.67593202
Si       5.70227167       2.71385856       0.67593202
Si       3.61801025       0.83886045       0.67593202
Si       5.84734748       7.47002797       5.04107263
Si      11.78331151       5.46923827       5.04107263
Si       7.08259479       1.32893748       5.04107263
Si      12.35662689       7.13410186       6.81185648
22
Lattice="8.210343866471996 3.819325232459381e-14 -1.3137725145927748e-14 4.105171933235957 7.110366362170527 1.0189923515341062e-14 4.105171933235985 2.3701221207235257 10.421858336416863" Properties=species:S:1:pos:R:3 unique_starting_index=186 config_type=initial n_minim_iter=15 stress="-0.002825540771110362 -1.2408539054976856e-17 -9.087430072615403e-17 -1.2408539054976856e-17 -0.0028255407711100817 5.350270074881197e-16 -9.087430072615403e-17 5.350270074881197e-16 0.0009977967909860859" pbc="T T T"
Si      11.30687564       5.07171138       2.74066478
Si       6.94913694       1.89283550       2.74066478
Si       6.37501902       7.25618585       2.74066478
Si       6.82460524       5.15667260       3.99748158
Si       9.26385072       5.73211491       3.99748158
Si       8.54257564       3.33194521       3.99748158
Si       2.78861245       3.07517660       4.69341786
Si       5.37404677       3.15776884       4.69341786
Si       4.15285658       0.87742092       4.69341786
Si       5.87412532       4.96378067       6.25414958
Si       9.57204136       6.65170063       6.25414958
Si       9.18486491       2.60525142       6.25414958
Si       5.34466289       4.09576334       2.50011407
Si       4.97987559       0.43387085       2.50011407
Si       1.99097732       2.58073217       2.50011407
Si       3.09887071       3.63904658       0.69588827
Si       5.70724336       2.60714231       0.69588827
Si       3.50940172       0.86417747       0.69588827
Si       5.82722260       7.44752460       5.01257528
Si      11.74647806       5.45044762       5.01257528
Si       7.05733093       1.32276051       5.01257528
Si      12.31551580       7.11036636       6.71684363
22
Lattice="8.173345302381627 3.8866849541830535e-14 -1.236432819382141e-14 4.086672651190768 7.078324665764721 1.486957186701028e-14 4.086672651190798 2.3594415552549273 10.47287892836749" Properties=species:S:1:pos:R:3 unique_starting_index=186 config_type=initial n_minim_iter=16 stress="-0.0010674062997025641 5.30929999934856e-17 -2.5497466606017327e-16 5.30929999934856e-17 -0.0010674062997021888 8.9328170825968e-16 -2.5497466606017327e-16 8.9328170825968e-16 0.0010802356502916813" pbc="T T T"
Si      11.26561513       5.09664829       2.75002918
Si       6.95436463       1.85201630       2.75002918
Si       6.30005615       7.20798475       2.75002918
Si       6.78871665       5.12854185       4.03212339
Si       9.22043451       5.71317733       4.03212339
Si       8.51088475       3.31493015       4.03212339
Si       2.73149790       3.05898843       4.69984133
Si       5.37008539       3.18328387       4.69984133
Si       4.15843466       0.83605236       4.69984133
Si       5.92047601       4.93940493       6.30862691
Si       9.49075744       6.55966423       6.30862691
Si       9.10880245       2.65758017       6.30862691
Si       5.32429894       4.03830439       2.45490427
Si       4.92179737       0.44819433       2.45490427
Si       2.01392164       2.59182594       2.45490427
Si       3.14326962       3.70246919       0.76114994
Si       5.72147021       2.50493873       0.76114994
Si       3.39527811       0.87091675       0.76114994
Si       5.79354592       7.42857143       5.03146293
Si      11.70990392       5.42500567       5.03146293
Si       7.01658607       1.30307223       5.03146293
Si      12.26001795       7.07832467       6.69848596
22
Lattice="8.24360543351717 4.111274970596899e-14 -1.2999596688261794e-14 4.121802716758537 7.139171724201329 1.680411637592779e-14 4.121802716758569 2.3797239080671337 10.262333549932361" Properties=species:S:1:pos:R:3 unique_starting_index=186 config_type=initial n_minim_iter=17 stress="0.0024600686757127823 -2.3161656870630318e-17 -2.1369385803260116e-16 -2.3161656870630318e-17 0.0024600686757136293 1.215619340360939e-15 -2.1369385803260116e-16 1.215619340360939e-15 -0.006318952908989263" pbc="T T T"
Si      11.40020210       5.13104730       2.68705380
Si       6.98712169       1.83995517       2.68705380
Si       6.34349250       7.30734098       2.68705380
Si       6.86380317       5.19405137       3.92883039
Si       9.30988428       5.73708985       3.92883039
Si       8.55712884       3.34720223       3.92883039
Si       2.77147373       3.09907629       4.64239640
Si       5.41994465       3.18946692       4.64239640
Si       4.17398977       0.85062851       4.64239640
Si       6.01083552       4.96965518       6.19601094
Si       9.54203531       6.58797959       6.19601094
Si       9.17794547       2.72070867       6.19601094
Si       5.40389827       4.01926010       2.40110722
Si       4.90063493       0.44962850       2.40110722
Si       2.06087495       2.67028313       2.40110722
Si       3.22722271       3.78136200       0.73820663
Si       5.78294692       2.45363387       0.73820663
Si       3.35523852       0.90417585       0.73820663
Si       5.84510508       7.48474711       4.93287735
Si      11.80303403       5.47396040       4.93287735
Si       7.08267719       1.31963594       4.93287735
Si      12.36540815       7.13917172       6.52838424
22
Lattice="8.180429842418299 4.750727034145603e-14 -1.3275532121849908e-14 4.090214921209095 7.08446005741062 2.4593041510411138e-14 4.090214921209129 2.361486685803577 10.390790300418713" Properties=species:S:1:pos:R:3 unique_starting_index=186 config_type=initial n_minim_iter=18 stress="0.006709390706786232 5.524040018540814e-17 -4.877379347200575e-16 5.524040018540814e-17 0.0067093907067874116 1.3937311981697656e-15 -4.877379347200575e-16 1.3937311981697656e-15 0.0001784269579790834" pbc="T T T"
Si      11.32969961       5.19981322       2.74413266
Si       7.01875038       1.75720582       2.74413266
Si       6.19283953       7.21190107       2.74413266
Si       6.80852773       5.17796429       3.96833161
Si       9.26041460       5.68357999       3.96833161
Si       8.47234720       3.30737583       3.96833161
Si       2.73779147       3.03287201       4.68675149
Si       5.34786340       3.19702709       4.68675149
Si       4.18498990       0.85456095       4.68675149
Si       6.08500225       4.93322687       6.30397012
Si       9.41022851       6.43254015       6.30397012
Si       9.04605877       2.80315309       6.30397012
Si       5.39073070       3.90389305       2.38871546
Si       4.77572012       0.46400380       2.38871546
Si       2.10419394       2.71656321       2.38871546
Si       3.33599283       3.92320089       0.79927646
Si       5.81981014       2.23380508       0.79927646
Si       3.11484180       0.92745409       0.79927646
Si       5.78597899       7.45336423       4.97732859
Si      11.74224311       5.43143320       4.97732859
Si       7.01306742       1.28412268       4.97732859
Si      12.27064476       7.08446006       6.54259931
22
Lattice="8.116234583136395 3.8445687012303355e-14 -2.9521127196301305e-14 4.05811729156813 7.028865332069932 4.693853392035326e-14 4.058117291568156 2.3429551106900464 10.466398264553535" Properties=species:S:1:pos:R:3 unique_starting_index=186 config_type=initial n_minim_iter=19 stress="0.0076436557408259284 -1.8370886096466713e-16 -1.3241262410370807e-15 -1.8370886096466713e-16 0.007643655740825881 2.739374773244705e-15 -1.3241262410370807e-15 2.739374773244705e-15 0.0036023197875765223" pbc="T T T"
Si      11.26440944       5.25318248       2.78042995
Si       7.03341934       1.67587469       2.78042995
Si       6.05087497       7.12867350       2.78042995
Si       6.74297346       5.18309926       3.99099529
Si       9.23344349       5.62659472       3.99099529
Si       8.37228680       3.24803668       3.99099529
Si       2.74177095       2.96236784       4.72504333
Si       5.25271762       3.17323811       4.72504333
Si       4.17986330       0.89325937       4.72504333
Si       6.12127186       4.90210213       6.33338392
Si       9.30094363       6.30550266       6.33338392
Si       8.92648826       2.85012587       6.33338392
Si       5.36901839       3.80200196       2.40259117
Si       4.66623837       0.47815803       2.40259117
Si       2.13909510       2.74870534       2.40259117
Si       3.42579726       4.03314286       0.81246608
Si       5.83802284       2.04546645       0.81246608
Si       2.91053178       0.95025602       0.81246608
Si       5.73311896       7.41109819       5.01575785
Si      11.66787441       5.38715491       5.01575785
Si       6.94771039       1.25947756       5.01575785
Si      12.17435187       7.02886533       6.57841446
22
Lattice="8.02638660901636 1.507747293744846e-14 -7.109740192850628e-14 4.013193304508092 6.951054704003332 9.913861163303817e-14 4.013193304508091 2.317018234667923 10.510979978651207" Properties=species:S:1:pos:R:3 unique_starting_index=186 config_type=initial n_minim_iter=20 stress="0.0027816647608844367 -5.545534507708003e-16 -3.370201659360402e-15 -5.545534507708003e-16 0.0027816647608813346 6.3509308944383396e-15 -3.370201659360402e-15 6.3509308944383396e-15 0.0029751970300449138" pbc="T T T"
Si      11.17960866       5.25533371       2.79374773
Si       6.98783478       1.59261744       2.79374773
Si       5.91171639       7.05415825       2.79374773
Si       6.65568067       5.14956370       4.00185719
Si       9.15819926       5.56333902       4.00185719
Si       8.26527990       3.18920669       4.00185719
Si       2.72362782       2.90736299       4.75893091
Si       5.16922960       3.13864233       4.75893091
Si       4.14672249       0.90504939       4.75893091
Si       6.11254735       4.85521788       6.32231713
Si       9.17485496       6.18087918       6.32231713
Si       8.79175751       2.86601235       6.32231713
Si       5.33507447       3.69975079       2.43482000
Si       4.54973424       0.48086929       2.43482000
Si       2.15477120       2.77043463       2.43482000
Si       3.48324147       4.09612344       0.79964272
Si       5.81891953       1.88641738       0.79964272
Si       2.73741892       0.96851388       0.79964272
Si       5.67168293       7.33761050       5.05239214
Si      11.54510224       5.32148266       5.05239214
Si       6.86237466       1.24301625       5.05239214
Si      12.03957991       6.95105470       6.63033147
22
Lattice="8.002724489241986 -5.030832158365103e-15 -1.0117048416357468e-13 4.0013622446209 6.9305627071712905 1.360186910909581e-13 4.001362244620872 2.310187569057296 10.505475854447683" Properties=species:S:1:pos:R:3 unique_starting_index=186 config_type=initial n_minim_iter=21 stress="0.0012621021795632562 -6.707514884273587e-16 -5.111258767719309e-15 -6.707514884273587e-16 0.0012621021795569149 8.989337041694745e-15 -5.111258767719309e-15 8.989337041694745e-15 0.0031127409591619882" pbc="T T T"
Si      11.17185645       5.23903795       2.77482398
Si       6.95393621       1.56649494       2.77482398
Si       5.88238080       7.05559252       2.77482398
Si       6.61374542       5.15297077       3.99156303
Si       9.15845537       5.55696848       3.99156303
Si       8.23597268       3.15118617       3.99156303
Si       2.73719199       2.90482460       4.76182211
Si       5.14841815       3.10767260       4.76182211
Si       4.11847659       0.91806550       4.76182211
Si       6.05915676       4.85482949       6.26759416
Si       9.17755177       6.18632699       6.26759416
Si       8.77146493       2.81996894       6.26759416
Si       5.31674998       3.69312812       2.49355939
Si       4.54133003       0.47955810       2.49355939
Si       2.14600673       2.75787649       2.49355939
Si       3.47082242       4.06668575       0.75638350
Si       5.78780420       1.89139944       0.75638350
Si       2.74546011       0.97247751       0.75638350
Si       5.66556072       7.31170676       5.07307583
Si      11.50206793       5.29875252       5.07307583
Si       6.84054482       1.25066613       5.07307583
Si      12.00408673       6.93056271       6.72041469
