22
Lattice="10.16765349646789 -0.12004761376623908 -1.0525208205309358 -4.389641030448422 9.172057603264944 1.0525208205309668 -3.7761927041365824 -3.9597026491044196 8.635074563856346" Properties=species:S:1:pos:R:3 unique_starting_index=6 config_type=initial n_minim_iter=1 energy=-3571.458591356685 free_energy=-3571.458591356685 pbc="T T T"
Si      -4.07465883       6.23120285       7.93635286
Si       1.83153530       1.57070549       5.73474060
Si       6.81281886       2.94231122      -0.84546319
Si      -0.59219597      -0.54291927       4.47553041
Si       7.04506689      -1.75715767       1.84781314
Si      -0.79830384       4.13986403       1.75124252
Si       1.75868762       4.32657621       4.15954415
Si      -3.97567099       3.45864653       9.48053775
Si      -0.93493216       6.25427377       2.67133367
Si       0.96047791       6.46960849       4.15314644
Si       1.49150864       4.17280758       1.86785976
Si       1.87930468       6.41574808       0.98793820
Si       1.68770727      -0.36468542       4.48192812
Si       2.29038650      -2.17458214       5.96374089
Si       1.25201165       0.44606294       7.64713636
Si      -0.61918545      -0.85000390       6.76721480
Si      -1.78214767       2.11435867       1.51631872
Si       2.83694901       3.58244251       5.99525399
Si      -1.72113061       0.12182817       2.63982057
Si      -5.49768471       4.48603296       8.17127666
Si       2.88900623       4.52600500      -0.00000000
Si       3.19573040      -2.03987513       3.79127687
22
Lattice="10.239556052488163 -0.263668341659374 -1.189892790640268 -4.55018480283517 9.176810306772609 1.1898927906403007 -3.847665192460894 -3.8163564388611007 8.77295674775307" Properties=species:S:1:pos:R:3 unique_starting_index=6 config_type=initial n_minim_iter=2 stress="0.001871030483130859 -0.002790777942730663 -0.0006705245499841687 -0.002790777942730663 -0.0007196982272069687 0.00042800430104232296 -0.0006705245499841687 0.00042800430104232296 0.0036524195076894092" pbc="T T T"
Si      -4.29254083       6.37293886       8.09818154
Si       1.76582380       1.51226638       5.85728525
Si       6.74905343       2.78626814      -0.95569379
Si      -0.57016525      -0.45796081       4.58320343
Si       7.02015524      -1.84163983       1.72577871
Si      -0.81002609       4.15000566       1.86466799
Si       1.66636044       4.38680635       4.18975331
Si      -4.16183650       3.47845739       9.72865054
Si      -1.04697840       6.23372380       2.80649214
Si       0.79966581       6.46887856       4.23653529
Si       1.44714476       4.16622313       1.89484499
Si       1.78374636       6.31619780       1.02179053
Si       1.68327727      -0.36751161       4.53642145
Si       2.24744743      -2.14151968       5.96646461
Si       1.13047344       0.46082038       7.75116622
Si      -0.67795245      -0.74967024       6.87811175
Si      -1.86266448       2.17615601       1.58890741
Si       2.73330372       3.54047375       6.03201750
Si      -1.78703459       0.15349307       2.74093924
Si      -5.63974859       4.58711657       8.37394213
Si       2.84468562       4.45657099      -0.00000000
Si       3.19594543      -2.04001239       3.79153198
22
Lattice="10.183079371835559 -0.20147542303148647 -1.1996856661686053 -4.469994911941617 9.1517672242253 1.199685666168639 -3.8677763816739605 -3.8296623514711965 8.691889073837059" Properties=species:S:1:pos:R:3 unique_starting_index=6 config_type=initial n_minim_iter=3 stress="-0.004736478061560638 0.0003688656557972845 0.00042218573752200164 0.0003688656557972845 -0.0043940535246246035 -0.00026948649606037153 0.00042218573752200164 -0.00026948649606037153 -0.004971929779573714" pbc="T T T"
Si      -4.25160419       6.38832569       8.01614639
Si       1.75966675       1.50082244       5.82126498
Si       6.69860059       2.81020929      -0.97202470
Si      -0.54904990      -0.43703233       4.55754469
Si       6.93577933      -1.80315568       1.67093842
Si      -0.75322574       4.15526647       1.87542834
Si       1.68005578       4.43861426       4.13434438
Si      -4.13899032       3.42946771       9.66391377
Si      -1.00518335       6.22638353       2.80764339
Si       0.81363829       6.49290798       4.19735616
Si       1.47392530       4.19010492       1.87388343
Si       1.80654466       6.31295550       1.01206622
Si       1.67907939      -0.35802695       4.49453291
Si       2.20308182      -2.12000564       5.88424568
Si       1.09782285       0.46682866       7.67982284
Si      -0.68767665      -0.72863016       6.81800564
Si      -1.85428031       2.18445099       1.58635253
Si       2.72856306       3.55599622       5.95355392
Si      -1.79107019       0.14242235       2.73833515
Si      -5.57567578       4.55986479       8.30522220
Si       2.85654223       4.47514591      -0.00000000
Si       3.15765149      -2.01556888       3.74610170
22
Lattice="10.244249822923818 -0.16783700592498935 -1.2214369791740978 -4.465236866839244 9.221414393576078 1.2214369791741317 -3.9190751687840573 -3.8696019765516536 8.725351703720264" Properties=species:S:1:pos:R:3 unique_starting_index=6 config_type=initial n_minim_iter=4 stress="0.0007479722824726597 0.0018390932193936879 0.000523431700913343 0.0018390932193936879 0.00245523516839317 -0.0003341130750509679 0.000523431700913343 -0.0003341130750509679 -0.0004259443098687588" pbc="T T T"
Si      -4.27031394       6.45642874       8.04647047
Si       1.76980632       1.51087414       5.85192690
Si       6.73219316       2.84935247      -0.99103395
Si      -0.54587422      -0.42696086       4.58375235
Si       6.95049948      -1.79602784       1.65198782
Si      -0.73011628       4.19667580       1.90031820
Si       1.70248383       4.50908098       4.14159935
Si      -4.16892721       3.43647825       9.71638564
Si      -0.99301687       6.27921504       2.83621660
Si       0.82799937       6.56851218       4.21552653
Si       1.50299781       4.24191646       1.88017349
Si       1.83525700       6.36962773       1.01543742
Si       1.69031136      -0.35310969       4.50982517
Si       2.19458172      -2.12666668       5.88913510
Si       1.08584040       0.47679260       7.70991428
Si      -0.70421964      -0.72038595       6.84517821
Si      -1.86752749       2.20927370       1.60135159
Si       2.74841291       3.59964323       5.96249456
Si      -1.81113594       0.13886370       2.76285714
Si      -5.59412373       4.58800721       8.34543709
Si       2.88950648       4.52678870      -0.00000000
Si       3.16258733      -2.01871949       3.75195736
22
Lattice="10.260473428738653 -0.26799136354306846 -1.3077265391385515 -4.562912576236882 9.19396340945541 1.3077265391385864 -3.951084010193296 -3.7593717034021834 8.792914340194987" Properties=species:S:1:pos:R:3 unique_starting_index=6 config_type=initial n_minim_iter=5 stress="0.0005491491549725331 -0.0011274638152035089 -0.0019753623803425205 -0.0011274638152035089 -0.0004974955211194387 0.001260898791734606 -0.0019753623803425205 0.001260898791734606 0.0012688240573573502" pbc="T T T"
Si      -4.40066505       6.50622600       8.13623243
Si       1.72551928       1.48275199       5.90230559
Si       6.68410912       2.73807180      -1.04366063
Si      -0.55058661      -0.37177818       4.63197189
Si       6.92785155      -1.83796250       1.58288221
Si      -0.75975210       4.18218521       1.96440845
Si       1.64106049       4.51066436       4.16094245
Si      -4.28162932       3.45624273       9.83657496
Si      -1.07706931       6.23927312       2.91206271
Si       0.72506253       6.54821447       4.26488521
Si       1.47128614       4.21142607       1.89838791
Si       1.76146012       6.28786831       1.02576254
Si       1.68322954      -0.34479425       4.52802913
Si       2.16173092      -2.10949263       5.88085163
Si       1.01074116       0.48566313       7.76715180
Si      -0.75053374      -0.65175680       6.89452642
Si      -1.91816466       2.23619886       1.64741617
Si       2.67622833       3.56131812       5.97288735
Si      -1.84751677       0.16748323       2.82002698
Si      -5.67806664       4.63619185       8.45322470
Si       2.84878043       4.46298603      -0.00000000
Si       3.15469471      -2.01368153       3.74259390
22
Lattice="10.245573091890417 -0.3185748978246556 -1.1757320473957646 -4.602521227967834 9.15915150507395 1.1757320473958015 -3.8125691715537324 -3.7876928690888563 8.807570768131118" Properties=species:S:1:pos:R:3 unique_starting_index=6 config_type=initial n_minim_iter=6 stress="-0.00024071269914318158 -0.0019704918487424374 0.004005648645650693 -0.0019704918487424374 -0.002069955265474814 -0.0025568561939182783 0.004005648645650693 -0.0025568561939182783 0.0010170761790940094" pbc="T T T"
Si      -4.33936924       6.43526788       8.03459234
Si       1.81072981       1.40009865       5.94445420
Si       6.63308686       2.67402451      -0.98052308
Si      -0.47598278      -0.38287792       4.65517555
Si       6.94062005      -1.87437518       1.68738452
Si      -0.75101524       4.14477614       1.94871047
Si       1.68358884       4.45994419       4.15239522
Si      -4.17972754       3.35467671       9.78809384
Si      -1.08854347       6.17129535       2.86885942
Si       0.74112170       6.49307635       4.23798191
Si       1.49213449       4.16123826       1.89387126
Si       1.72748436       6.22624630       0.98118585
Si       1.76497002      -0.38176297       4.56958886
Si       2.24341713      -2.17684124       5.93871134
Si       1.10766593       0.40058025       7.82638491
Si      -0.66631940      -0.68229731       6.91369950
Si      -1.92632058       2.23470100       1.62255900
Si       2.74232205       3.46573895       5.98147495
Si      -1.82352386       0.15887214       2.82609582
Si      -5.57708532       4.56503031       8.36074381
Si       2.82152593       4.42028831      -0.00000000
Si       3.21650196      -2.05313388       3.81591936
22
Lattice="10.227374227476599 -0.2748015292692075 -1.254218972693731 -4.555154441753445 9.161073489559781 1.2542189726937707 -3.8933110650359852 -3.7683111004776255 8.768678640575864" Properties=species:S:1:pos:R:3 unique_starting_index=6 config_type=initial n_minim_iter=7 stress="-0.00032512033516868326 -0.00036381382069038235 0.001133633937855453 -0.00036381382069038235 -0.0006628551638869846 -0.0007236128807222 0.001133633937855453 -0.0007236128807222 -9.28936525325699e-05" pbc="T T T"
Si      -4.36929502       6.46095116       8.03703296
Si       1.78748893       1.44050912       5.90501095
Si       6.62659974       2.68876211      -0.99700431
Si      -0.51847037      -0.33419754       4.62968100
Si       6.88811853      -1.81528726       1.60944871
Si      -0.74849500       4.14974871       1.98586465
Si       1.69405853       4.50697807       4.13899763
Si      -4.24437046       3.37437909       9.76568295
Si      -1.10033061       6.17342965       2.90064863
Si       0.74593829       6.55970506       4.24906584
Si       1.51766473       4.17353188       1.90629008
Si       1.73321798       6.25831016       0.96628051
Si       1.74263602      -0.32996050       4.51961279
Si       2.16957375      -2.16725246       5.86803001
Si       1.05359371       0.43866214       7.80239813
Si      -0.74665898      -0.63458245       6.86238856
Si      -1.94599538       2.24573061       1.65783524
Si       2.72117647       3.51292229       5.92006418
Si      -1.85256532       0.17893873       2.84861446
Si      -5.59217256       4.57313163       8.36506236
Si       2.83610989       4.44313598      -0.00000000
Si       3.16703158      -2.02155631       3.75722983
22
Lattice="10.208250003995282 -0.26469114620695683 -1.344732946623214 -4.537932172764175 9.147983446768023 1.3447329466232554 -3.9686558173201125 -3.7181207414662314 8.747118691329936" Properties=species:S:1:pos:R:3 unique_starting_index=6 config_type=initial n_minim_iter=8 stress="-0.0006044865542501128 0.0008634022619249899 -0.0020201721822657457 0.0008634022619249899 0.00019702509391450186 0.00128950145505627 -0.0020201721822657457 0.00128950145505627 -0.0011556066382562352" pbc="T T T"
Si      -4.45183219       6.49533424       8.02707480
Si       1.78505880       1.45826490       5.90256855
Si       6.57830551       2.62889635      -1.01261901
Si      -0.54142371      -0.23095040       4.61661863
Si       6.81077811      -1.74971530       1.49981719
Si      -0.74068068       4.12645930       2.06477683
Si       1.72012617       4.57683765       4.13050006
Si      -4.35368395       3.35555954       9.75973769
Si      -1.15952859       6.13961042       2.95493554
Si       0.73075224       6.63681085       4.28076856
Si       1.55202430       4.15512937       1.93577731
Si       1.70485997       6.26868811       0.92741690
Si       1.74362388      -0.26108187       4.46635013
Si       2.08847650      -2.18499626       5.79218315
Si       0.99960150       0.46749957       7.81970179
Si      -0.85316174      -0.56097391       6.81134138
Si      -2.00822829       2.26913474       1.73408799
Si       2.71560598       3.53070108       5.83345461
Si      -1.90943850       0.23156153       2.91366407
Si      -5.60286518       4.56363693       8.35776364
Si       2.83515892       4.44164615      -0.00000000
Si       3.11979709      -1.99140594       3.70119287
22
Lattice="10.212585794058521 -0.3139586357900359 -1.3649280718149288 -4.5844458321900925 9.131173803937147 1.3649280718149677 -3.9645896854633675 -3.6742163049121017 8.777281494737261" Properties=species:S:1:pos:R:3 unique_starting_index=6 config_type=initial n_minim_iter=9 stress="0.0023619565634329476 0.0003457176246068634 -0.0016676024588810183 0.0003457176246068634 0.002682892372056344 0.0010644517413215587 -0.0016676024588810183 0.0010644517413215587 0.0021412810438209283" pbc="T T T"
Si      -4.57805260       6.52639329       7.97104148
Si       1.85907967       1.41402557       6.00547783
Si       6.48335541       2.45522352      -1.00343817
Si      -0.48102165      -0.08172503       4.63337277
Si       6.74788860      -1.70656300       1.40687559
Si      -0.70181512       4.05214189       2.17116808
Si       1.79193947       4.67227918       4.14390872
Si      -4.46717269       3.24022007       9.78071966
Si      -1.25970037       6.07080716       3.00256350
Si       0.70863097       6.69067550       4.32818581
Si       1.59134578       4.08919405       1.98169828
Si       1.64249471       6.25633276       0.85879605
Si       1.80586152      -0.21456468       4.44909568
Si       2.07230842      -2.26092024       5.77471800
Si       1.01871748       0.44963361       7.91848544
Si      -0.92545742      -0.50916268       6.79558321
Si      -2.11606239       2.29582649       1.85210148
Si       2.79608142       3.47497282       5.75836090
Si      -1.98980235       0.32499892       3.01892059
Si      -5.57570192       4.50415815       8.29010808
Si       2.81406998       4.40860759      -0.00000000
Si       3.12399805      -1.99408747       3.70617671
22
Lattice="10.19001684402248 -0.3275728981701084 -1.34103899131235 -4.587292784525258 9.104970740980994 1.3410389913123864 -3.9317452337220136 -3.6671610252349676 8.765582826794788" Properties=species:S:1:pos:R:3 unique_starting_index=6 config_type=initial n_minim_iter=10 stress="0.0017281705305888873 0.00032311669829763535 -0.0005170574189189294 0.00032311669829763535 0.0020281254980732645 0.00033004429023245687 -0.0005170574189189294 0.00033004429023245687 0.0015219211832859637" pbc="T T T"
Si      -4.60957220       6.51786917       7.90524156
Si       1.90496514       1.38535947       6.05134894
Si       6.42755750       2.36931909      -0.98924690
Si      -0.43044219      -0.02050990       4.62248669
Si       6.71284388      -1.68357034       1.37319489
Si      -0.66627917       4.00081536       2.20138026
Si       1.83359859       4.71116798       4.14309613
Si      -4.48875625       3.16049649       9.75482972
Si      -1.28108117       6.03250058       2.99652604
Si       0.71186675       6.68452367       4.32559741
Si       1.60099742       4.05297904       1.99082090
Si       1.62301960       6.24277760       0.83117524
Si       1.83176362      -0.20716440       4.43998542
Si       2.07940845      -2.28938619       5.76905678
Si       1.04746603       0.43331698       7.93440758
Si      -0.92952540      -0.50859997       6.77476192
Si      -2.15056199       2.29762918       1.89500991
Si       2.84884797       3.43348980       5.71661202
Si      -2.01680079       0.36245120       3.04897080
Si      -5.52954438       4.45447637       8.21161191
Si       2.80136203       4.38869893      -0.00000000
Si       3.12913580      -1.99736696       3.71227192
22
Lattice="10.170923636167808 -0.3328608221147219 -1.3149529494897663 -4.5840506527453195 9.08542588725048 1.3149529494898013 -3.901831340184536 -3.6687800818216036 8.752333980316962" Properties=species:S:1:pos:R:3 unique_starting_index=6 config_type=initial n_minim_iter=11 stress="-2.9636138959160702e-05 0.00013132746224425588 0.0003339468329711451 0.00013132746224425588 9.227747576512938e-05 -0.0002131624872413879 0.0003339468329711451 -0.0002131624872413879 -0.00011346420180196245" pbc="T T T"
Si      -4.60569929       6.49822030       7.86724427
Si       1.92569058       1.37183154       6.06359848
Si       6.40470664       2.33604128      -0.97672707
Si      -0.40522505      -0.00621788       4.61059428
Si       6.70266826      -1.67737373       1.37378255
Si      -0.65257627       3.97489188       2.20004266
Si       1.85000819       4.71360660       4.14173969
Si      -4.47940650       3.12413998       9.72906104
Si      -1.27237827       6.01419662       2.97894562
Si       0.71661642       6.65928996       4.30841325
Si       1.59568971       4.03937160       1.98693401
Si       1.61815272       6.22792888       0.82832779
Si       1.83678952      -0.21509907       4.44392073
Si       2.08905562      -2.29081753       5.77338836
Si       1.06596040       0.42103185       7.92400618
Si      -0.90971954      -0.52076236       6.76539997
Si      -2.15215504       2.29659197       1.89772587
Si       2.86613170       3.40703609       5.70257844
Si      -2.01815855       0.36537195       3.04975554
Si      -5.49665846       4.43143080       8.16956105
Si       2.79343649       4.37628254      -0.00000000
Si       3.13454615      -2.00082045       3.71869051
22
Lattice="10.153798683427535 -0.33948941395242765 -1.2766568513831567 -4.582853245863538 9.067101901525014 1.2766568513831902 -3.861587152892339 -3.6769087898102137 8.741465546118553" Properties=species:S:1:pos:R:3 unique_starting_index=6 config_type=initial n_minim_iter=12 stress="-0.0016534808389551516 -0.0005273965449609028 0.0012195021002881585 -0.0005273965449609028 -0.002143072414782076 -0.0007784236148629613 0.0012195021002881585 -0.0007784236148629613 -0.0013168372556790116" pbc="T T T"
Si      -4.61490531       6.46951112       7.80456590
Si       1.97708370       1.35605249       6.09420767
Si       6.36841104       2.26636021      -0.94538233
Si      -0.36521992       0.04353569       4.59282851
Si       6.68983770      -1.65215800       1.37060102
Si      -0.63329953       3.92800180       2.21355650
Si       1.90261112       4.73775917       4.14863703
Si      -4.48708568       3.05375235       9.68684787
Si      -1.24574697       5.98624330       2.95659019
Si       0.72450066       6.63009224       4.27092515
Si       1.59135864       4.03500281       1.98376500
Si       1.60813155       6.20633956       0.82962792
Si       1.84723042      -0.22836908       4.47054039
Si       2.09273245      -2.28655904       5.78487536
Si       1.09084100       0.39472395       7.91183762
Si      -0.87161463      -0.53465891       6.75770054
Si      -2.16587848       2.31237797       1.91208459
Si       2.89936498       3.36123704       5.67164871
Si      -2.03344829       0.36810543       3.06981683
Si      -5.43512032       4.39917639       8.10603781
Si       2.78547272       4.36380625      -0.00000000
Si       3.14610576      -2.00819910       3.73240435
22
Lattice="10.166098677955292 -0.3055258864441301 -1.285289218231097 -4.557225032136396 9.092557858143168 1.2852892182311284 -3.8878276226924795 -3.7019739356331693 8.73355953365152" Properties=species:S:1:pos:R:3 unique_starting_index=6 config_type=initial n_minim_iter=13 stress="0.00034392630612665857 -0.0007584877080671467 -9.357114872907798e-05 -0.0007584877080671467 -0.0003601912990910421 5.972764772058214e-05 -9.357114872907798e-05 5.972764772058214e-05 0.0008280786266956876" pbc="T T T"
Si      -4.64310071       6.46752188       7.75183150
Si       2.04289890       1.37584331       6.10827137
Si       6.34100868       2.21824469      -0.89779835
Si      -0.36388709       0.15010649       4.58213212
Si       6.66613925      -1.57522948       1.33999894
Si      -0.62384540       3.90198038       2.26701724
Si       2.01040307       4.81819053       4.15142741
Si      -4.54543262       2.98357438       9.63135788
Si      -1.19518599       5.97821844       2.97073333
Si       0.73950988       6.67989236       4.22398874
Si       1.62109431       4.09141138       1.99616889
Si       1.60141331       6.21886821       0.83491355
Si       1.85984217      -0.21885339       4.50957079
Si       2.03792599      -2.26914132       5.76282620
Si       1.07879318       0.36883978       7.89864598
Si      -0.85920875      -0.50900328       6.73739064
Si      -2.20312184       2.34979279       1.95813682
Si       2.94368394       3.36112055       5.61221883
Si      -2.07845344       0.38319088       3.12134070
Si      -5.38611529       4.38153776       8.06071193
Si       2.80443682       4.39351599      -0.00000000
Si       3.13913553      -2.00374991       3.72413516
22
Lattice="10.170821865594805 -0.23527827973598067 -1.277028163191418 -4.4954952770259045 9.12641745181615 1.2770281631914513 -3.914090716936292 -3.758472347519288 8.69974446134409" Properties=species:S:1:pos:R:3 unique_starting_index=6 config_type=initial n_minim_iter=14 stress="0.00025784136004419034 -3.0712302147526915e-05 -0.0010460901524809627 -3.0712302147526915e-05 0.00022933058470834264 0.0006677325752654908 -0.0010460901524809627 0.0006677325752654908 0.000277445669909604" pbc="T T T"
Si      -4.62187035       6.45870814       7.68651772
Si       2.10052740       1.40758292       6.09389481
Si       6.32586574       2.22759077      -0.84453351
Si      -0.36844999       0.22660138       4.56610990
Si       6.64912629      -1.49584528       1.32882149
Si      -0.60531161       3.89488789       2.29025490
Si       2.12189889       4.89386615       4.13363456
Si      -4.55684289       2.91727537       9.54427797
Si      -1.10327924       5.99610753       2.96401671
Si       0.77690496       6.72599323       4.15614414
Si       1.64948365       4.17770469       2.00073368
Si       1.61666374       6.25124405       0.85741332
Si       1.85965105      -0.22202326       4.54360031
Si       1.98919498      -2.23474383       5.73572775
Si       1.07547599       0.33980508       7.84233113
Si      -0.81915164      -0.50342015       6.69901077
Si      -2.20942606       2.36205232       1.98124306
Si       2.99961542       3.39044579       5.56649364
Si      -2.10166508       0.38977169       3.13325081
Si      -5.33687440       4.35834215       7.99552956
Si       2.83766329       4.44556959      -0.00000000
Si       3.12836557      -1.99687531       3.71135815
22
Lattice="10.17669096510567 -0.20571691273321585 -1.2357554097320482 -4.471152541849601 9.144186863519323 1.2357554097320833 -3.894407147831355 -3.8043443060893836 8.688786293135264" Properties=species:S:1:pos:R:3 unique_starting_index=6 config_type=initial n_minim_iter=15 stress="-0.0009018051454983743 0.0006224034764053928 -0.000753222758911494 0.0006224034764053928 -0.0003240169485072168 0.0004807916137668488 -0.000753222758911494 0.0004807916137668488 -0.0012990929701820458" pbc="T T T"
Si      -4.57371354       6.44194808       7.65788110
Si       2.12419492       1.41180429       6.08555774
Si       6.33448730       2.27100238      -0.81035994
Si      -0.36954424       0.21169268       4.57124184
Si       6.66854355      -1.48891092       1.36747314
Si      -0.59676238       3.90340985       2.26666060
Si       2.15873201       4.88805561       4.11754444
Si      -4.50141252       2.89750064       9.49914622
Si      -1.05893502       6.01947973       2.93486566
Si       0.80825149       6.72092203       4.13134094
Si       1.65253868       4.21212440       2.00403089
Si       1.62760166       6.27450784       0.87335751
Si       1.86153736      -0.24159731       4.55744535
Si       2.01140871      -2.23055315       5.75392063
Si       1.11165600       0.31364883       7.81542878
Si      -0.76953379      -0.53202975       6.68475540
Si      -2.18848807       2.32865998       1.96791020
Si       3.04735527       3.41330788       5.59115102
Si      -2.08134365       0.39682763       3.09763527
Si      -5.33195196       4.33517274       7.95663150
Si       2.85276921       4.46923498      -0.00000000
Si       3.14114191      -2.00503060       3.72651544
22
Lattice="10.186280180381853 -0.22245929264184278 -1.2125126290514487 -4.490375985561769 9.145835968265152 1.212512629051484 -3.869998307349172 -3.8093033151783517 8.705877341188412" Properties=species:S:1:pos:R:3 unique_starting_index=6 config_type=initial n_minim_iter=16 stress="-0.0002224154663168247 0.00025332716888964855 -7.345369042375906e-05 0.00025332716888964855 1.2752642007822309e-05 4.688641963978129e-05 -7.345369042375906e-05 4.688641963978129e-05 -0.00038411738411285286" pbc="T T T"
Si      -4.56861370       6.43478656       7.66067549
Si       2.13320027       1.39934083       6.10064856
Si       6.34039321       2.26617312      -0.80187508
Si      -0.36144117       0.19695837       4.58075635
Si       6.68744518      -1.50769130       1.39271615
Si      -0.60021998       3.90171065       2.25771447
Si       2.15673029       4.86914986       4.12512099
Si      -4.48387056       2.89586540       9.50775242
Si      -1.06268017       6.02034949       2.92415896
Si       0.80833185       6.70114863       4.13496575
Si       1.64488761       4.20557126       2.00249901
Si       1.62444562       6.26671637       0.87628085
Si       1.86797685      -0.25480835       4.57091158
Si       2.03818324      -2.23854303       5.78171838
Si       1.13032631       0.30254679       7.82959649
Si      -0.74784777      -0.54668767       6.70337833
Si      -2.18466729       2.32502205       1.95635340
Si       3.05293228       3.40032561       5.61342003
Si      -2.07105843       0.39146151       3.09245731
Si      -5.33167497       4.33379685       7.96203656
Si       2.84795210       4.46168834      -0.00000000
Si       3.15814094      -2.01588130       3.74668235
22
Lattice="10.194362303204205 -0.23856646532236775 -1.1922418735544162 -4.508388751683923 9.146385493245775 1.1922418735544527 -3.847946428824023 -3.812431056692451 8.72135626673346" Properties=species:S:1:pos:R:3 unique_starting_index=6 config_type=initial n_minim_iter=17 stress="0.0002841055211241992 -0.00019700672694982532 0.00027672003023291214 -0.00019700672694982532 0.00010122067893448303 -0.0001766338952485572 0.00027672003023291214 -0.0001766338952485572 0.00040985733817665873" pbc="T T T"
Si      -4.56460083       6.42533530       7.66255693
Si       2.14282121       1.38914121       6.11245160
Si       6.34329476       2.25959328      -0.78887898
Si      -0.35813041       0.18862455       4.59024926
Si       6.70427701      -1.52249373       1.41666279
Si      -0.60644315       3.89879319       2.25104121
Si       2.15989844       4.84995882       4.13110700
Si      -4.46900854       2.89259930       9.51023524
Si      -1.06683290       6.02161360       2.91191289
Si       0.80935249       6.67998726       4.13914631
Si       1.63636213       4.20217527       2.00082599
Si       1.61993341       6.25653797       0.88163992
Si       1.87040454      -0.26591961       4.58220996
Si       2.06313011      -2.24490530       5.80944337
Si       1.14504556       0.29104096       7.83971634
Si      -0.72528687      -0.55897824       6.72053027
Si      -2.18223735       2.32004807       1.94544747
Si       3.05741311       3.38994011       5.63362342
Si      -2.06031326       0.38802565       3.08773285
Si      -5.33317056       4.33132860       7.96815067
Si       2.84298678       4.45390952      -0.00000000
Si       3.17320794      -2.02549876       3.76455719
22
Lattice="10.204208250931048 -0.2617409973273858 -1.1633781933931746 -4.533554586283548 9.14555942472838 1.163378193393213 -3.815956809539678 -3.8159606962464623 8.74212450102054" Properties=species:S:1:pos:R:3 unique_starting_index=6 config_type=initial n_minim_iter=18 stress="0.0012702665450635773 -0.0006241146803379952 0.0007482869410384549 -0.0006241146803379952 0.0006908898070784404 -0.00047764101878880575 0.0007482869410384549 -0.00047764101878880575 0.0016686466540864052" pbc="T T T"
Si      -4.56206416       6.41114566       7.65279477
Si       2.16659687       1.36964561       6.13154242
Si       6.33121653       2.23796801      -0.75749503
Si      -0.35461055       0.19882300       4.60956309
Si       6.71841910      -1.53584009       1.44720388
Si      -0.61355810       3.89076430       2.25270792
Si       2.18433678       4.82991500       4.13256141
Si      -4.45154905       2.86900947       9.49961953
Si      -1.08005348       6.02397622       2.88936611
Si       0.81579340       6.64817272       4.15156134
Si       1.62648434       4.20223561       1.99719804
Si       1.61050375       6.23502234       0.88999854
Si       1.87082496      -0.27700146       4.59056316
Si       2.10282882      -2.25943200       5.85275838
Si       1.16148941       0.26989968       7.85212596
Si      -0.68908380      -0.57144215       6.74492645
Si      -2.18651073       2.31345913       1.93148672
Si       3.06654046       3.37654096       5.65433470
Si      -2.04432014       0.38713373       3.08778980
Si      -5.33052414       4.32032265       7.97401597
Si       2.83532683       4.44190922      -0.00000000
Si       3.19412572      -2.03885084       3.78937315
22
Lattice="10.181801293409555 -0.24683639505947003 -1.1961208915649486 -4.510601621118786 9.131510214633858 1.196120891564989 -3.843829178270867 -3.7987713686349194 8.715217972532475" Properties=species:S:1:pos:R:3 unique_starting_index=6 config_type=initial n_minim_iter=19 stress="-0.0006717446153273312 1.4886450111817343e-05 -0.0003908131323729135 1.4886450111817343e-05 -0.0006579252594036625 0.0002494609653951349 -0.0003908131323729135 0.0002494609653951349 -0.0006812467279726802" pbc="T T T"
Si      -4.56844839       6.41527651       7.63629675
Si       2.15807110       1.37563396       6.10640367
Si       6.29323474       2.22918126      -0.75204895
Si      -0.37154707       0.24326676       4.60994438
Si       6.67716101      -1.50895829       1.41269340
Si      -0.61204274       3.88985274       2.27504211
Si       2.20445381       4.85130897       4.10527359
Si      -4.47140050       2.84804793       9.46726692
Si      -1.08574501       6.02532787       2.89451750
Si       0.81303186       6.65342069       4.15708607
Si       1.62830674       4.21293740       1.99382760
Si       1.60850965       6.22563407       0.89422045
Si       1.84887543      -0.26010752       4.55813189
Si       2.07857871      -2.24683613       5.82070046
Si       1.12594093       0.28132764       7.82099752
Si      -0.70801634      -0.54809418       6.72139037
Si      -2.19339633       2.31583922       1.93856113
Si       3.04609113       3.39221106       5.62034359
Si      -2.04936939       0.39237181       3.09487438
Si      -5.33038572       4.31821922       7.97277773
Si       2.83559984       4.44233691      -0.00000000
Si       3.16898606      -2.02280388       3.75954854
22
Lattice="10.178612847840512 -0.24471790451688383 -1.1935401066524078 -4.507337649419069 9.129510045623691 1.1935401066524503 -3.841691555329433 -3.800219105803509 8.71139053692341" Properties=species:S:1:pos:R:3 unique_starting_index=6 config_type=initial n_minim_iter=20 stress="0.00044580333646198256 0.0003587166319362025 -3.3175642579299207e-06 0.0003587166319362025 0.0007788063543650825 2.1176432275873314e-06 -3.3175642579299207e-06 2.1176432275873314e-06 0.00021682997407532955" pbc="T T T"
Si      -4.58058708       6.41649063       7.59936315
Si       2.18897801       1.36252312       6.11986961
Si       6.24981953       2.18927316      -0.72672211
Si      -0.36001460       0.30360928       4.62124002
Si       6.65120563      -1.48577322       1.39798081
Si      -0.60042928       3.87590556       2.30556748
Si       2.25654547       4.88584531       4.09015051
Si      -4.48718311       2.79041833       9.43811265
Si      -1.09192994       6.02365375       2.89430791
Si       0.81583379       6.65742075       4.16139871
Si       1.63466334       4.21142584       1.99931632
Si       1.60280400       6.22689665       0.88804907
Si       1.85346166      -0.25732966       4.54999183
Si       2.08180177      -2.25459876       5.81708262
Si       1.13162596       0.27523614       7.82334146
Si      -0.70992602      -0.54441254       6.71207421
Si      -2.20984548       2.32231849       1.95480337
Si       3.06381850       3.38499915       5.59916475
Si      -2.06123687       0.40396740       3.11222579
Si      -5.31218171       4.30257895       7.95012726
Si       2.83563760       4.44239608      -0.00000000
Si       3.16846065      -2.02246850       3.75892521
22
Lattice="10.173008695231104 -0.24726832298800938 -1.176144572801214 -4.507291572302268 9.123353014054292 1.1761445728012585 -3.82424953430591 -3.805224948466343 8.708038940189716" Properties=species:S:1:pos:R:3 unique_starting_index=6 config_type=initial n_minim_iter=21 stress="-1.6404111553843956e-05 0.00011298255973323337 0.0004863657044879706 0.00011298255973323337 8.84796044817449e-05 -0.00031045338072138023 0.0004863657044879706 -0.00031045338072138023 -8.852242882951524e-05" pbc="T T T"
Si      -4.55547861       6.39579706       7.56651049
Si       2.21318229       1.34561210       6.10496674
Si       6.19837881       2.16798557      -0.67630207
Si      -0.36608440       0.35547894       4.64979500
Si       6.63751391      -1.47849473       1.42692762
Si      -0.61228242       3.87880507       2.31767302
Si       2.31803342       4.88846438       4.05824394
Si      -4.46739266       2.72979061       9.38434100
Si      -1.07674121       6.04654606       2.87254433
Si       0.81384133       6.61384986       4.16091295
Si       1.61319111       4.21520725       1.99338854
Si       1.60674360       6.22205129       0.90818294
Si       1.83222144      -0.28248684       4.54712599
Si       2.11361362      -2.23618958       5.83549461
Si       1.14301434       0.27176375       7.79985599
Si      -0.68001388      -0.56730279       6.71465039
Si      -2.19342395       2.31550990       1.93072253
Si       3.05373829       3.38163238       5.61331846
Si      -2.04260475       0.38840080       3.09472048
Si      -5.30778311       4.30344474       7.95346098
Si       2.83285856       4.43804235      -0.00000000
Si       3.17437958      -2.02624663       3.76594718
