14
Lattice="4.822844479923375 0.534534982204172 -0.40670614252084075 1.332498998337307 4.85596411346772 -1.6963006701884018 0.13140531779051584 -3.220425169323359 12.57455466423295" Properties=species:S:1:pos:R:3 unique_starting_index=100 config_type=initial n_minim_iter=1 energy=-2279.1444961495145 free_energy=-2279.1444961495145 pbc="T T T"
Si       5.78441584       5.30147609      -0.99149269
Si       1.34327433       0.71009765       2.49896188
Si       5.47285718       3.51725841       2.65871245
Si       0.93242961      -0.13064672       4.76101479
Si       0.50233296      -3.13140216      11.46304054
Si       4.94347447       1.45997628       7.97258597
Si       0.81389162      -1.34718448       7.81283540
Si       5.35431919       2.30072065       5.71053307
Si       3.70226137       0.32729909       9.75231778
Si       2.58448743       1.84277484       0.71923008
Si       2.15467556      -1.49155536       9.70772234
Si       4.13207324       3.66162929       0.76382551
Si       0.66624950       2.42798206      -0.84815034
Si       2.47712490      -1.34294509       6.08392426
14
Lattice="4.823004547556163 0.5251104176739959 -0.40264187135545515 1.3218526574463698 4.851598848428905 -1.6993317288650938 0.1501411213258848 -3.2255186751521516 12.589697467514172" Properties=species:S:1:pos:R:3 unique_starting_index=100 config_type=initial n_minim_iter=2 stress="0.0006977368793108429 -0.0008177442986721988 0.0004111566668889925 -0.0008177442986721988 -7.429037595442344e-05 -0.00018372463084524805 0.0004111566668889925 -0.00018372463084524805 0.0006542514506725777" pbc="T T T"
Si       5.77493960       5.28836238      -0.99034644
Si       1.34510124       0.70576713       2.50294969
Si       5.47054940       3.50362030       2.66498242
Si       0.93781744      -0.13487509       4.76689767
Si       0.52005873      -3.13717179      11.47807031
Si       4.94989708       1.44542346       7.98477418
Si       0.82444892      -1.35242971       7.82274145
Si       5.35718088       2.28606568       5.72082620
Si       3.71349682       0.31312289       9.76644188
Si       2.58150150       1.83806770       0.72128199
Si       2.16875753      -1.49998940       9.72194520
Si       4.12624080       3.65117999       0.76577866
Si       0.66092633       2.42579942      -0.84966586
Si       2.48657283      -1.35020413       6.09352780
14
Lattice="4.80202447475082 0.525269438002845 -0.40220798512333356 1.3167743434971704 4.846403234129547 -1.6977321107819885 0.14879376208488262 -3.224852055967852 12.56921906339489" Properties=species:S:1:pos:R:3 unique_starting_index=100 config_type=initial n_minim_iter=3 stress="-0.0033259710877198605 -0.0009012476712011721 0.0008509217735980199 -0.0009012476712011721 -0.003430209898721142 -0.00011221447392880795 0.0008509217735980199 -0.00011221447392880795 -0.002670279216707957" pbc="T T T"
Si       5.74872352       5.28724286      -0.99473594
Si       1.34102664       0.70434012       2.50102092
Si       5.44616615       3.50094645       2.65768744
Si       0.93540613      -0.13543185       4.75832233
Si       0.51886906      -3.14042224      11.46401491
Si       4.92656594       1.44248050       7.96825805
Si       0.82142643      -1.35412584       7.81159153
Si       5.33218645       2.28225247       5.71095664
Si       3.70355681       0.30058598       9.75209795
Si       2.56403577       1.84623463       0.71718101
Si       2.16348567      -1.50117388       9.71164673
Si       4.10410691       3.64799450       0.75763224
Si       0.65838717       2.42320162      -0.84886606
Si       2.47540912      -1.34979131       6.08350554
14
Lattice="4.798473783774905 0.5363949229095164 -0.4106275645766758 1.3268327288024637 4.869577249946769 -1.7043178273304957 0.12330439905946201 -3.240813853307598 12.595538952465214" Properties=species:S:1:pos:R:3 unique_starting_index=100 config_type=initial n_minim_iter=4 stress="-0.0008605436465613743 0.0001673223939135634 0.0005167110257067035 0.0001673223939135634 0.0009032159755647287 0.00020043707373938776 0.0005167110257067035 0.00020043707373938776 0.00020015046295392716" pbc="T T T"
Si       5.75053367       5.32757269      -1.01419984
Si       1.33983969       0.70930168       2.50816000
Si       5.44089482       3.52744182       2.65063859
Si       0.92986114      -0.13442896       4.76579120
Si       0.49807725      -3.16241437      11.49479340
Si       4.90877123       1.45585664       7.97243356
Si       0.80771609      -1.36228351       7.82995497
Si       5.31874977       2.29958728       5.71480236
Si       3.69614185       0.28954871       9.77025448
Si       2.55246906       1.87560961       0.71033908
Si       2.15070839      -1.50717275       9.73823315
Si       4.09790252       3.67233107       0.74236041
Si       0.66341636       2.43478862      -0.85215891
Si       2.46088909      -1.35220947       6.09245569
14
Lattice="4.8121515586932775 0.5348896365550075 -0.4219834891132515 1.333839643596252 4.858320501477301 -1.7102261048785021 0.09485276617321817 -3.242207572051131 12.591083419540086" Properties=species:S:1:pos:R:3 unique_starting_index=100 config_type=initial n_minim_iter=5 stress="6.903667152784164e-06 -0.00015502941070873256 -0.0009404308640626715 -0.00015502941070873256 -0.0005027885184401488 -2.905444510134516e-05 -0.0009404308640626715 -2.905444510134516e-05 0.00034255224394174775" pbc="T T T"
Si       5.76543096       5.31694950      -1.03180424
Si       1.33741331       0.70663482       2.50342388
Si       5.44832584       3.51642200       2.63167398
Si       0.92154099      -0.13701899       4.76099517
Si       0.47541300      -3.16594693      11.49067806
Si       4.90343066       1.44436775       7.95544995
Si       0.79251813      -1.36541943       7.82719984
Si       5.31930298       2.28802156       5.69787865
Si       3.68696043       0.27676233       9.75652265
Si       2.55388354       1.87424023       0.70235117
Si       2.13476758      -1.51179891       9.73155469
Si       4.10607639       3.66280148       0.72731914
Si       0.66691982       2.42916025      -0.85511305
Si       2.45350216      -1.35365897       6.08454997
14
Lattice="4.823892012296301 0.5376920148636439 -0.4154400691401172 1.3379066789880911 4.857063812380195 -1.708283298161211 0.1091044191512044 -3.24802324029827 12.568527397365736" Properties=species:S:1:pos:R:3 unique_starting_index=100 config_type=initial n_minim_iter=6 stress="0.0013853540934631622 0.00035347369769197546 0.00026874885392601873 0.00035347369769197546 -0.0005074611784549668 -0.00012603877967583683 0.00026874885392601873 -0.00012603877967583683 -0.0006582785533044729" pbc="T T T"
Si       5.77756385       5.32175135      -1.02608006
Si       1.34360780       0.70789228       2.49929833
Si       5.46646283       3.51656281       2.62813925
Si       0.92946495      -0.13835341       4.75237122
Si       0.49333926      -3.17501876      11.47088409
Si       4.92729531       1.43884031       7.94550570
Si       0.80444028      -1.36983022       7.81666478
Si       5.34143816       2.28508599       5.69243281
Si       3.71291159       0.26854957       9.74113761
Si       2.55799152       1.87818302       0.70366642
Si       2.15123808      -1.51705838       9.71888484
Si       4.11966503       3.66379097       0.72591919
Si       0.66895334       2.42853191      -0.85414165
Si       2.46649822      -1.35516561       6.07654366
14
Lattice="4.811412013688358 0.5326821332622795 -0.41382877465540985 1.3272956234810076 4.866343246570168 -1.7144908696662242 0.119219517427828 -3.2725061288637143 12.570841757012344" Properties=species:S:1:pos:R:3 unique_starting_index=100 config_type=initial n_minim_iter=7 stress="0.0006008886436327507 -0.0002727250593246641 -6.262557973737839e-05 -0.0002727250593246641 0.0009154787687285877 -0.001320234884821832 -6.262557973737839e-05 -0.001320234884821832 -0.0007295042879977562" pbc="T T T"
Si       5.73726062       5.34409523      -1.02915868
Si       1.33548301       0.71478560       2.49472454
Si       5.44618141       3.51674163       2.61204199
Si       0.92729728      -0.14415537       4.74944915
Si       0.52066653      -3.21757598      11.47168080
Si       4.92244415       1.41173365       7.94779757
Si       0.81174574      -1.39022238       7.83048012
Si       5.33062987       2.27067462       5.69307297
Si       3.72546131       0.23285022       9.73691690
Si       2.53246585       1.89366903       0.70560521
Si       2.15067592      -1.54320172       9.73202852
Si       4.10725124       3.66972097       0.71049359
Si       0.66364781       2.43317162      -0.85724543
Si       2.46531577      -1.36991200       6.07850649
14
Lattice="4.804734791176832 0.5313690768735055 -0.40779594587604373 1.3253855178356122 4.848568421401383 -1.6977868431487635 0.13111307778223666 -3.2115681493066677 12.597207134949244" Properties=species:S:1:pos:R:3 unique_starting_index=100 config_type=initial n_minim_iter=8 stress="0.0001745541656516091 0.0007962140324877933 0.0005724672074379218 0.0007962140324877933 -0.001111242160923738 -0.00018705632084997138 0.0005724672074379218 -0.00018705632084997138 0.0013246645410232424" pbc="T T T"
Si       5.72378531       5.33571893      -1.00277692
Si       1.33381528       0.72771078       2.50572956
Si       5.44158543       3.52425738       2.63738196
Si       0.93020735      -0.12264539       4.76395772
Si       0.53744807      -3.16734958      11.49440127
Si       4.92741810       1.44065857       7.98589478
Si       0.81964795      -1.35588803       7.85424238
Si       5.33102603       2.29101474       5.72766662
Si       3.73585425       0.26965456       9.77126212
Si       2.52537914       1.89871478       0.72036222
Si       2.15679124      -1.50080889       9.76285467
Si       4.10444214       3.66917824       0.72876968
Si       0.66269276       2.42428421      -0.84889342
Si       2.46792393      -1.34009954       6.09470559
14
Lattice="4.8018545636462795 0.5216181339092487 -0.40778259701110153 1.3163101227595315 4.8490264797322205 -1.6788876885818294 0.13061277550578312 -3.1752122762844452 12.562363906346425" Properties=species:S:1:pos:R:3 unique_starting_index=100 config_type=initial n_minim_iter=9 stress="-7.898521583657405e-05 -0.000295992430223519 -0.00020408105965671346 -0.000295992430223519 0.00032113005152259244 0.0006806575410885705 -0.00020408105965671346 0.0006806575410885705 -0.0007125613090847664" pbc="T T T"
Si       5.71016045       5.33210724      -0.98569689
Si       1.32796095       0.73523893       2.50186479
Si       5.43009508       3.53029268       2.64083808
Si       0.92733653      -0.10813988       4.75384248
Si       0.53861701      -3.13667490      11.46139051
Si       4.92081651       1.46019340       7.97382883
Si       0.81868238      -1.33486034       7.83485554
Si       5.32144093       2.30357222       5.72185114
Si       3.72953561       0.29397731       9.75095261
Si       2.51924185       1.90145502       0.72474102
Si       2.15305469      -1.47740485       9.73891630
Si       4.09572277       3.67283719       0.73677732
Si       0.65815506       2.42451324      -0.83944384
Si       2.46623367      -1.32679707       6.07729065
14
Lattice="4.794073184468909 0.5234437967124325 -0.40794758137288323 1.3137952206393324 4.855844821710755 -1.6967405678972696 0.13598751966342415 -3.2164793434736803 12.59393312241029" Properties=species:S:1:pos:R:3 unique_starting_index=100 config_type=initial n_minim_iter=10 stress="-0.000818053991287727 -6.708722354116723e-05 -0.00040544631730274187 -6.708722354116723e-05 0.000337443000540688 -0.0012072546662007196 -0.00040544631730274187 -0.0012072546662007196 0.000485535817937675" pbc="T T T"
Si       5.70040599       5.33701334      -1.00205465
Si       1.31794920       0.72485165       2.50267526
Si       5.41977536       3.52533210       2.63880200
Si       0.92866642      -0.11827841       4.76572326
Si       0.54344994      -3.17420407      11.49129962
Si       4.92590673       1.43795763       7.98656971
Si       0.82408056      -1.36252282       7.85044297
Si       5.31518951       2.28108769       5.72352171
Si       3.72588769       0.25932726       9.76874521
Si       2.51796824       1.90348201       0.72049976
Si       2.15373034      -1.52037596       9.76233806
Si       4.09012559       3.68318523       0.72690691
Si       0.65689761       2.42792241      -0.84837028
Si       2.46503035      -1.34651777       6.09299277
14
Lattice="4.785965327024725 0.4947364686140427 -0.3848253783591493 1.2839553936129688 4.819554213636039 -1.6325265615099365 0.1952611605323001 -3.048990099857076 12.577362483583592" Properties=species:S:1:pos:R:3 unique_starting_index=100 config_type=initial n_minim_iter=11 stress="0.0001754601421236278 0.00047134066531907256 0.00019250047691625116 0.00047134066531907256 -0.00022502983526030503 -0.00024879910224231337 0.00019250047691625116 -0.00024879910224231337 0.0008747760873764154" pbc="T T T"
Si       5.63491066       5.31415948      -0.91480535
Si       1.28153065       0.75963093       2.51199625
Si       5.39093930       3.54533764       2.69757096
Si       0.94430259      -0.04293201       4.78129765
Si       0.63027123      -3.04885890      11.47481589
Si       4.98365123       1.50566965       8.04801429
Si       0.87424258      -1.28003705       7.86243959
Si       5.32087929       2.30823259       5.77871289
Si       3.77378562       0.32740470       9.79904352
Si       2.49139626       1.93789589       0.76096702
Si       2.18931976      -1.45235917       9.78992996
Si       4.07586212       3.71765975       0.77008059
Si       0.64197770       2.40977711      -0.81626328
Si       2.49061324      -1.27712682       6.09626855
14
Lattice="4.768084147498758 0.451686664548752 -0.3608745488145489 1.2377937403648962 4.78298177985049 -1.5555101543808727 0.26181871245819177 -2.8564442410421647 12.544068698964288" Properties=species:S:1:pos:R:3 unique_starting_index=100 config_type=initial n_minim_iter=12 stress="0.00036906107473769814 7.625693457443504e-06 0.0003893077999717743 7.625693457443504e-06 -0.0003380314559587652 0.0009665012342910005 0.0003893077999717743 0.0009665012342910005 0.00012198007977262782" pbc="T T T"
Si       5.53330645       5.28532795      -0.81775312
Si       1.22805840       0.80374291       2.52177704
Si       5.33605139       3.56527660       2.76013604
Si       0.95876015       0.04438063       4.79607358
Si       0.73439015      -2.90710375      11.44543712
Si       5.03963820       1.57448129       8.10590695
Si       0.93164521      -1.18705240       7.86754795
Si       5.30893645       2.33384357       5.83161041
Si       3.81492113       0.39436627       9.82313463
Si       2.45277547       1.98385794       0.80454936
Si       2.22461898      -1.38716085       9.80913087
Si       4.04307762       3.76538505       0.81855313
Si       0.61889687       2.39149089      -0.77775508
Si       2.51495143      -1.20237879       6.09159708
14
Lattice="4.7655392437425 0.4397201857606727 -0.37242416297911857 1.2264610364415531 4.795130769978047 -1.5708862519265143 0.2430225655812053 -2.9099782110157633 12.513977799062555" Properties=species:S:1:pos:R:3 unique_starting_index=100 config_type=initial n_minim_iter=13 stress="0.000572735051075128 6.518431687184276e-05 -0.000789059710549046 6.518431687184276e-05 0.0006017555044725464 -0.0008105732477214133 -0.000789059710549046 -0.0008105732477214133 -0.0018902618328502957" pbc="T T T"
Si       5.50104443       5.27954203      -0.86366046
Si       1.20726642       0.80978385       2.52055973
Si       5.31018342       3.54694586       2.72456944
Si       0.95355053       0.01895215       4.78304020
Si       0.73397842      -2.95466929      11.43432784
Si       5.02775642       1.51508890       8.05010765
Si       0.92483942      -1.22207311       7.84609794
Si       5.28147232       2.30592060       5.78762718
Si       3.78034293       0.32653512       9.79548796
Si       2.45467992       1.99833762       0.77517942
Si       2.20966410      -1.46625125       9.77781282
Si       4.02535875       3.79112399       0.79285457
Si       0.61323052       2.39756538      -0.78544313
Si       2.50428090      -1.23512901       6.07077682
14
Lattice="4.742711877108162 0.39467298713958926 -0.3561956251192333 1.1757354102218398 4.7726583934519775 -1.5216137604313424 0.3003166060989289 -2.7890032592626373 12.501308847072382" Properties=species:S:1:pos:R:3 unique_starting_index=100 config_type=initial n_minim_iter=14 stress="0.00040366086949238057 -0.0005145321705939786 -9.008825204488278e-05 -0.0005145321705939786 0.00016461075893265282 -0.00020962960585935937 -9.008825204488278e-05 -0.00020962960585935937 -0.0017421340872101343" pbc="T T T"
Si       5.38461193       5.24803099      -0.80822511
Si       1.15301524       0.85745659       2.53624064
Si       5.24488598       3.54562391       2.76512707
Si       0.96507832       0.06778661       4.80036455
Si       0.83415197      -2.86970286      11.43172457
Si       5.06574865       1.52087153       8.08725882
Si       0.97387791      -1.16729579       7.85837239
Si       5.25368558       2.31054151       5.82313492
Si       3.79109050       0.34243787       9.82753610
Si       2.42767339       2.03589025       0.79596336
Si       2.23641141      -1.46637409       9.79449889
Si       3.98235249       3.84470221       0.82900057
Si       0.58786771       2.38632920      -0.76080688
Si       2.52151424      -1.19716514       6.07255661
14
Lattice="4.732485475965367 0.3857963773952731 -0.3543610641819668 1.163387277742302 4.772440295780113 -1.521187331678971 0.31216452440876385 -2.782478221349526 12.526676272414583" Properties=species:S:1:pos:R:3 unique_starting_index=100 config_type=initial n_minim_iter=15 stress="-4.275802801592289e-05 -4.087874671711971e-06 0.0003130452630811181 -4.087874671711971e-06 -7.775182153659364e-05 -0.00034975188410884807 0.0003130452630811181 -0.00034975188410884807 0.00013215468215013553" pbc="T T T"
Si       5.35582303       5.23843661      -0.80470069
Si       1.14669343       0.87450413       2.54544563
Si       5.22850967       3.53700609       2.77556200
Si       0.96682276       0.06278316       4.81288058
Si       0.85221424      -2.86267816      11.45582856
Si       5.06134385       1.50125432       8.10568225
Si       0.97952761      -1.16124764       7.87556588
Si       5.24121452       2.31297529       5.83824730
Si       3.77536998       0.34464888       9.85766081
Si       2.43266730       2.03110958       0.79346707
Si       2.23905841      -1.47983248       9.80860421
Si       3.96897887       3.85559093       0.84252367
Si       0.58169364       2.38622015      -0.76059367
Si       2.52232500      -1.19834092       6.08615760
14
Lattice="4.712171016465124 0.3583408929872791 -0.3532636964420997 1.1346429392515895 4.758811801644734 -1.4810135384307452 0.32107556246901664 -2.6692264533253764 12.536427211633951" Properties=species:S:1:pos:R:3 unique_starting_index=100 config_type=initial n_minim_iter=16 stress="-0.0016195297634948296 0.0010296000097183824 -0.0004231218593399784 0.0010296000097183824 -0.0009109117810633003 0.0011581077464567207 -0.0004231218593399784 0.0011581077464567207 0.0018242274762027492" pbc="T T T"
Si       5.29362208       5.22620796      -0.74931578
Si       1.12708105       0.93855572       2.55336599
Si       5.18304317       3.53883897       2.81277017
Si       0.96523929       0.10233913       4.83204477
Si       0.87426744      -2.77828172      11.45146575
Si       5.04080847       1.50937052       8.14878399
Si       0.98484635      -1.09091273       7.88937981
Si       5.20265023       2.34558711       5.87010520
Si       3.74204395       0.40468175       9.90815041
Si       2.42584557       2.04324450       0.79399956
Si       2.24661232      -1.44823951       9.81591387
Si       3.92127720       3.89616576       0.88623611
Si       0.56732147       2.37940590      -0.74050677
Si       2.51662329      -1.15544278       6.09158176
14
Lattice="4.720975757766551 0.36242161947450063 -0.3557114114490583 1.1408985842658679 4.764492079066882 -1.4871455356479133 0.31372013567429957 -2.6899282661963215 12.527142099665149" Properties=species:S:1:pos:R:3 unique_starting_index=100 config_type=initial n_minim_iter=17 stress="-0.0008159270601834556 0.0010479462960469165 -0.0007170193752297161 0.0010479462960469165 4.447214487590363e-05 0.00032555935537930173 -0.0007170193752297161 0.00032555935537930173 0.002191268701638183" pbc="T T T"
Si       5.32687684       5.23055726      -0.75122440
Si       1.14565825       0.93805322       2.54426047
Si       5.19876392       3.53426382       2.80931000
Si       0.96668859       0.09551971       4.82617710
Si       0.84871764      -2.79357183      11.43550956
Si       5.02993622       1.49893221       8.14002468
Si       0.97683055      -1.09727839       7.87497516
Si       5.20890589       2.34146573       5.85810806
Si       3.73708027       0.40368404       9.90448647
Si       2.43851420       2.03330139       0.77979868
Si       2.25558095      -1.45350625       9.79862793
Si       3.92001353       3.89049168       0.88565722
Si       0.57044929       2.38224604      -0.74357277
Si       2.51734795      -1.16375332       6.08571534
14
Lattice="4.725456150372806 0.34000567697832984 -0.3467871934984506 1.1196252460426686 4.756031123741105 -1.4603488610999749 0.3425822271606781 -2.63969691355772 12.480553461076605" Properties=species:S:1:pos:R:3 unique_starting_index=100 config_type=initial n_minim_iter=18 stress="1.0593112402814342e-06 -0.00019618448301743054 0.00021977452240618298 -0.00019618448301743054 0.000301876730535817 0.00015769875978641643 0.00021977452240618298 0.00015769875978641643 0.0003178710700770549" pbc="T T T"
Si       5.31029038       5.22085304      -0.71400911
Si       1.13926197       0.96440653       2.53505687
Si       5.18591413       3.53059633       2.82589344
Si       0.97851736       0.12411463       4.81931756
Si       0.87737325      -2.76451315      11.38742652
Si       5.04840165       1.49193336       8.13836053
Si       1.00174950      -1.07425644       7.84752397
Si       5.20914626       2.33222526       5.85409985
Si       3.75235564       0.40697909       9.90057091
Si       2.43530798       2.04936080       0.77284649
Si       2.29480060      -1.46025812       9.76860118
Si       3.89286303       3.91659801       0.90481623
Si       0.55981262       2.37801556      -0.73017443
Si       2.53401919      -1.14984562       6.06688313
14
Lattice="4.73381309808818 0.3213250974544827 -0.34737650254295177 1.1058462014780042 4.7458839070463865 -1.443878191034712 0.3463769968592678 -2.607461114270298 12.435522150639738" Properties=species:S:1:pos:R:3 unique_starting_index=100 config_type=initial n_minim_iter=19 stress="0.0005580989748443335 -0.0001273360015840775 -0.0003862482273701024 -0.0001273360015840775 -9.667712129532906e-05 -0.00045853814872904463 -0.0003862482273701024 -0.00045853814872904463 -0.0012522182350486399" pbc="T T T"
Si       5.30940816       5.21159148      -0.69769155
Si       1.14416380       1.00028938       2.52457833
Si       5.17461291       3.52431246       2.82424572
Si       0.98265186       0.14326759       4.80518039
Si       0.87662814      -2.75184359      11.34195901
Si       5.04187250       1.45945851       8.11968913
Si       1.01142338      -1.06456457       7.82002174
Si       5.20338444       2.31648030       5.83908707
Si       3.74250864       0.40009012       9.90033775
Si       2.44352766       2.05965777       0.74392970
Si       2.32150077      -1.47939153       9.72428647
Si       3.86453553       3.93913942       0.91998098
Si       0.55292310       2.37294195      -0.72193910
Si       2.54009505      -1.14306801       6.04407282
14
Lattice="4.720509933685615 0.293491576602442 -0.3291107414615431 1.0720313636613847 4.729022697928499 -1.4149318753436568 0.4056316896437133 -2.5304485776637935 12.458562341457927" Properties=species:S:1:pos:R:3 unique_starting_index=100 config_type=initial n_minim_iter=20 stress="0.00023650248676596527 -0.0008219713091352314 0.0009109471180427124 -0.0008219713091352314 0.000322435382792634 0.0008752478640397007 0.0009109471180427124 0.0008752478640397007 -0.0010963410754052" pbc="T T T"
Si       5.25954291       5.19877122      -0.65552758
Si       1.13582101       1.04572185       2.53870464
Si       5.13327586       3.54901575       2.86334793
Si       0.99474966       0.19046381       4.81710223
Si       0.93863008      -2.70670552      11.37004731
Si       5.06235197       1.44634385       8.17581508
Si       1.06489713      -1.05695005       7.85117180
Si       5.20342333       2.30160189       5.89741749
Si       3.75139099       0.41766296       9.97518883
Si       2.44678200       2.07440274       0.73933090
Si       2.36286579      -1.48210042       9.73784582
Si       3.83530720       3.97416612       0.97667390
Si       0.53601568       2.36451135      -0.70746594
Si       2.56307081      -1.11847850       6.06472580
14
Lattice="4.7205391960723695 0.30791522936742716 -0.33447464991436715 1.0863957822519075 4.731398455589121 -1.4361542037730175 0.3889521776890815 -2.5726622305485822 12.485333126869302" Properties=species:S:1:pos:R:3 unique_starting_index=100 config_type=initial n_minim_iter=21 stress="-0.00010207100919919833 -0.00025218071189851346 -0.0005333321136418112 -0.00025218071189851346 -0.0003480235522871983 -0.00020014729686377544 -0.0005333321136418112 -0.00020014729686377544 0.00042574241407660645" pbc="T T T"
Si       5.27801801       5.21333708      -0.68317429
Si       1.14729000       1.03625913       2.53794721
Si       5.14171721       3.55579816       2.84473343
Si       0.98945601       0.17567335       4.81450484
Si       0.91786914      -2.74668562      11.39787857
Si       5.04859716       1.43039233       8.17675707
Si       1.05416995      -1.08914671       7.86997085
Si       5.20643115       2.29097810       5.90019943
Si       3.74833399       0.39213379       9.98347894
Si       2.44755316       2.07451766       0.73122533
Si       2.34786076      -1.49297114       9.75621089
Si       3.84802640       3.95962259       0.95849338
Si       0.54319789       2.36569923      -0.71807710
Si       2.55474569      -1.13237350       6.07542924
