22
Lattice="3.7747495968510227 -1.574151396814794e-32 -5.2723684580669343e-20 6.402919091682879e-32 9.442223908880749 1.7650371704501325e-12 1.774704775277563e-19 -2.375133761172441e-12 12.705990084510743" Properties=species:S:1:pos:R:3 unique_starting_index=32 config_type=initial n_minim_iter=1 energy=-3580.220006409137 free_energy=-3580.220006409137 pbc="T T T"
Si       1.03970405       1.22220175       6.85025745
Si       2.73504554       8.22002216       6.85025745
Si       1.03970405       3.49891020       0.49726241
Si       2.73504554       5.94331371       0.49726241
Si       2.92437185       2.65021905      12.06229713
Si       0.85037774       6.79200486      12.06229713
Si       2.92437185       2.07089290       5.70930209
Si       0.85037774       7.37133100       5.70930209
Si       2.84954342       2.04565730       9.78463557
Si       0.92520618       7.39656661       9.78463557
Si       2.84954342       2.67545466       3.43164053
Si       0.92520618       6.76676925       3.43164053
Si       0.94603444       5.38177550       6.93055882
Si       2.82871516       4.06044841       6.93055882
Si       0.94603444       8.78156036       0.57756378
Si       2.82871516       0.66066354       0.57756378
Si       0.96414630       1.80636372       2.26703355
Si       2.81060329       7.63586019       2.26703355
Si       0.96414630       2.91474823       8.62002859
Si       2.81060329       6.52747568       8.62002859
Si       1.88737480       4.72111195       2.49063964
Si       1.88737480      -0.00000000       8.84363469
22
Lattice="3.784950484309318 -1.5720603697357497e-32 -5.267703488920572e-20 6.432499462229226e-32 9.44950985744308 1.7663316644013081e-12 1.7830331356436573e-19 -2.3777054600583516e-12 12.719261193984423" Properties=species:S:1:pos:R:3 unique_starting_index=32 config_type=initial n_minim_iter=2 stress="0.0007487870972137965 -2.217804616587886e-17 9.774837792647377e-17 -2.217804616587886e-17 0.0011500872303261648 1.4572849128940324e-16 9.774837792647377e-17 1.4572849128940324e-16 0.0009580957128176411" pbc="T T T"
Si       1.04220679       1.22350357       6.85764745
Si       2.74274369       8.22600629       6.85764745
Si       1.04220679       3.50125136       0.49801686
Si       2.74274369       5.94825849       0.49801686
Si       2.93180091       2.65240290      12.07503327
Si       0.85314957       6.79710696      12.07503327
Si       2.93180091       2.07235203       5.71540267
Si       0.85314957       7.37715782       5.71540267
Si       2.85711017       2.04714922       9.79447578
Si       0.92784031       7.40236064       9.79447578
Si       2.85711017       2.67760571       3.43484518
Si       0.92784031       6.77190415       3.43484518
Si       0.94830813       5.38590307       6.93800583
Si       2.83664236       4.06360679       6.93800583
Si       0.94830813       8.78836172       0.57837523
Si       2.83664236       0.66114814       0.57837523
Si       0.96672762       1.80762699       2.26943867
Si       2.81822286       7.64188287       2.26943867
Si       0.96672762       2.91712794       8.62906927
Si       2.81822286       6.53238192       8.62906927
Si       1.89247524       4.72475493       2.49276455
Si       1.89247524      -0.00000000       8.85239514
22
Lattice="3.8028524705882782 -1.6218999090133137e-32 -5.434539454678891e-20 6.229922461305659e-32 9.40488582904236 1.7579949292681165e-12 1.7307318008514127e-19 -2.37171936527739e-12 12.687274003067765" Properties=species:S:1:pos:R:3 unique_starting_index=32 config_type=initial n_minim_iter=3 stress="0.002257247235758019 4.0217463008283916e-17 8.592596835440263e-17 4.0217463008283916e-17 -0.0019280084505166935 -3.063201825209523e-16 8.592596835440263e-17 -3.063201825209523e-16 -0.0011132832953359097" pbc="T T T"
Si       1.04414388       1.22158980       6.84265492
Si       2.75870859       8.18329603       6.84265492
Si       1.04414388       3.48085311       0.49901792
Si       2.75870859       5.92403272       0.49901792
Si       2.94095467       2.64125911      12.04640780
Si       0.86189780       6.76362672      12.04640780
Si       2.94095467       2.06118380       5.70277080
Si       0.86189780       7.34370203       5.70277080
Si       2.86928553       2.03686181       9.76579249
Si       0.93356695       7.36802402       9.76579249
Si       2.86928553       2.66558110       3.42215549
Si       0.93356695       6.73930472       3.42215549
Si       0.95009562       5.35981964       6.92267325
Si       2.85275686       4.04506619       6.92267325
Si       0.95009562       8.74750910       0.57903625
Si       2.85275686       0.65737673       0.57903625
Si       0.97103174       1.79816915       2.26412628
Si       2.83182073       7.60671668       2.26412628
Si       0.97103174       2.90427377       8.60776329
Si       2.83182073       6.50061206       8.60776329
Si       1.90142624       4.70244291       2.48158750
Si       1.90142624      -0.00000000       8.82522450
22
Lattice="3.812475661227949 -1.6559669826575017e-32 -5.3633535213981276e-20 6.191892235076202e-32 9.40143416110085 1.7573369144122827e-12 1.7620683881819767e-19 -2.3755706957991957e-12 12.707785898207556" Properties=species:S:1:pos:R:3 unique_starting_index=32 config_type=initial n_minim_iter=4 stress="0.00044469193511446594 -1.898179205721372e-17 1.1430137315814296e-16 -1.898179205721372e-17 -0.002812301086206415 -8.972549677992025e-16 1.1430137315814296e-16 -8.972549677992025e-16 0.0016321870541550678" pbc="T T T"
Si       1.03027594       1.24137948       6.86414567
Si       2.78219972       8.16005469       6.86414567
Si       1.03027594       3.45933761       0.51025272
Si       2.78219972       5.94209656       0.51025272
Si       2.92382500       2.64882489      12.07454913
Si       0.88865066       6.75260927      12.07454913
Si       2.92382500       2.05189219       5.72065618
Si       0.88865066       7.34954197       5.72065618
Si       2.86968131       2.03366934       9.76015536
Si       0.94279435       7.36776482       9.76015536
Si       2.86968131       2.66704774       3.40626241
Si       0.94279435       6.73438642       3.40626241
Si       0.93949790       5.35254322       6.94543921
Si       2.87297777       4.04889095       6.94543921
Si       0.93949790       8.74960803       0.59154626
Si       2.87297777       0.65182613       0.59154626
Si       0.97180534       1.79232991       2.27129983
Si       2.84067032       7.60910425       2.27129983
Si       0.97180534       2.90838717       8.62519278
Si       2.84067032       6.49304699       8.62519278
Si       1.90623783       4.70071708       2.46009013
Si       1.90623783      -0.00000000       8.81398308
22
Lattice="3.8366765203005313 -1.1963646887044352e-32 -6.881285309940244e-20 6.777471690527328e-32 9.554875746474048 1.786088709637285e-12 1.2278319232663412e-19 -2.329614271292436e-12 12.46241445956846" Properties=species:S:1:pos:R:3 unique_starting_index=32 config_type=initial n_minim_iter=5 stress="0.0006786571958847611 3.1658727223092616e-17 1.1870940151366354e-16 3.1658727223092616e-17 -0.0003527975309967407 -6.686426754418701e-17 1.1870940151366354e-16 -6.686426754418701e-17 -0.00042171336315181655" pbc="T T T"
Si       1.01097504       1.28985192       6.74463391
Si       2.82570148       8.26502383       6.74463391
Si       1.01097504       3.48758596       0.51342668
Si       2.82570148       6.06728979       0.51342668
Si       2.91003714       2.70159055      11.84957544
Si       0.92663938       6.85328520      11.84957544
Si       2.91003714       2.07584732       5.61836821
Si       0.92663938       7.47902842       5.61836821
Si       2.87913869       2.06452260       9.54760258
Si       0.95753783       7.49035314       9.54760258
Si       2.87913869       2.71291527       3.31639535
Si       0.95753783       6.84196048       3.31639535
Si       0.93352724       5.43367638       6.82625744
Si       2.90314928       4.12119937       6.82625744
Si       0.93352724       8.89863724       0.59505021
Si       2.90314928       0.65623851       0.59505021
Si       0.97405160       1.81247244       2.23285876
Si       2.86262492       7.74240330       2.23285876
Si       0.97405160       2.96496543       8.46406599
Si       2.86262492       6.58991032       8.46406599
Si       1.91833826       4.77743787       2.37770584
Si       1.91833826      -0.00000000       8.60891307
22
Lattice="3.8570173590188355 -8.332779054748705e-33 -9.085553868577058e-20 6.803264738054016e-32 9.718939784982615 1.8167411225788462e-12 4.5418220905115786e-20 -2.288659137095743e-12 12.243196992886523" Properties=species:S:1:pos:R:3 unique_starting_index=32 config_type=initial n_minim_iter=6 stress="-7.723453914389848e-05 2.5611695566040368e-17 1.8911260316882926e-16 2.5611695566040368e-17 0.003412847883858566 6.195617300635479e-16 1.8911260316882926e-16 6.195617300635479e-16 -0.0007854479798290647" pbc="T T T"
Si       0.96184633       1.36354701       6.64264555
Si       2.89517102       8.35539277       6.64264555
Si       0.96184633       3.49592288       0.52104705
Si       2.89517102       6.22301691       0.52104705
Si       2.87540793       2.75291372      11.65237041
Si       0.98160942       6.96602606      11.65237041
Si       2.87540793       2.10655617       5.53077191
Si       0.98160942       7.61238361       5.53077191
Si       2.88133954       2.09540292       9.34853286
Si       0.97567782       7.62353686       9.34853286
Si       2.88133954       2.76406697       3.22693437
Si       0.97567782       6.95487281       3.22693437
Si       0.93449858       5.51891243       6.72691945
Si       2.92251878       4.20002735       6.72691945
Si       0.93449858       9.05949725       0.60532096
Si       2.92251878       0.65944254       0.60532096
Si       0.96607835       1.81814907       2.20416551
Si       2.89093901       7.90079072       2.20416551
Si       0.96607835       3.04132082       8.32576400
Si       2.89093901       6.67761896       8.32576400
Si       1.92850868       4.85946989       2.27971989
Si       1.92850868      -0.00000000       8.40131839
22
Lattice="3.860420932796534 -1.0877473682778103e-32 -1.0042696910646833e-19 5.758106606860724e-32 9.762936566567628 1.824711148888512e-12 1.1590614115989545e-20 -2.2763562870715415e-12 12.1755344175827" Properties=species:S:1:pos:R:3 unique_starting_index=32 config_type=initial n_minim_iter=7 stress="-0.0008976241119492997 1.2260292318682525e-16 7.844694553777361e-17 1.2260292318682525e-16 0.003435722129117989 5.523444656435072e-16 7.844694553777361e-17 5.523444656435072e-16 -0.0012782107683925606" pbc="T T T"
Si       0.89858481       1.41989227       6.61623985
Si       2.96183612       8.34304430       6.61623985
Si       0.89858481       3.46157601       0.52847264
Si       2.96183612       6.30136055       0.52847264
Si       2.83496182       2.75286959      11.59161191
Si       1.02545911       7.01006698      11.59161191
Si       2.83496182       2.12859870       5.50384470
Si       1.02545911       7.63433787       5.50384470
Si       2.87287757       2.10080014       9.28147775
Si       0.98754337       7.66213643       9.28147775
Si       2.87287757       2.78066815       3.19371054
Si       0.98754337       6.98226842       3.19371054
Si       0.95212706       5.53973993       6.70445752
Si       2.90829387       4.22319664       6.70445752
Si       0.95212706       9.10466492       0.61669031
Si       2.90829387       0.65827164       0.61669031
Si       0.94555328       1.78811511       2.20569685
Si       2.91486765       7.97482145       2.20569685
Si       0.94555328       3.09335317       8.29346406
Si       2.91486765       6.66958340       8.29346406
Si       1.93021047       4.88146828       2.21315805
Si       1.93021047      -0.00000000       8.30092526
22
Lattice="3.8385077593986296 -1.3005938803736202e-32 -1.0259443054934142e-19 5.006900902518385e-32 9.658488243063712 1.8052378377709255e-12 8.525881724037397e-21 -2.305889750003733e-12 12.333931657865303" Properties=species:S:1:pos:R:3 unique_starting_index=32 config_type=initial n_minim_iter=8 stress="-0.0022367562519282663 7.198828236951073e-17 1.1633757430013678e-16 7.198828236951073e-17 -0.0012312167796837505 -5.896246122020877e-16 1.1633757430013678e-16 -5.896246122020877e-16 0.0004226683047795574" pbc="T T T"
Si       0.86682663       1.41519593       6.69862605
Si       2.97168113       8.24329231       6.69862605
Si       0.86682663       3.41404819       0.53166022
Si       2.97168113       6.24444005       0.53166022
Si       2.81041427       2.69703822      11.73268678
Si       1.02809349       6.96145003      11.73268678
Si       2.81041427       2.13220591       5.56572096
Si       1.02809349       7.52628234       5.56572096
Si       2.85372826       2.07796640       9.41752269
Si       0.98477950       7.58052184       9.41752269
Si       2.85372826       2.75127772       3.25055686
Si       0.98477950       6.90721052       3.25055686
Si       0.97274553       5.48347086       6.78816144
Si       2.86576223       4.17501738       6.78816144
Si       0.97274553       9.00426150       0.62119561
Si       2.86576223       0.65422674       0.62119561
Si       0.92458587       1.74264780       2.24391987
Si       2.91392189       7.91584044       2.24391987
Si       0.92458587       3.08659632       8.41088570
Si       2.91392189       6.57189192       8.41088570
Si       1.91925388       4.82924412       2.22616006
Si       1.91925388      -0.00000000       8.39312589
22
Lattice="3.8510894150349286 -1.497085229877667e-32 -1.034118080919847e-19 4.553649103996432e-32 9.727343240201654 1.8180038830032848e-12 3.084208562051036e-21 -2.2878250012742623e-12 12.236520405462006" Properties=species:S:1:pos:R:3 unique_starting_index=32 config_type=initial n_minim_iter=9 stress="0.005428615784436063 1.2624683990827461e-16 3.7341852810879426e-17 1.2624683990827461e-16 0.0010023240087345296 3.718222338164342e-16 3.7341852810879426e-17 3.718222338164342e-16 -0.0017337365460704571" pbc="T T T"
Si       0.82876488       1.45340574       6.65326519
Si       3.02232454       8.27393750       6.65326519
Si       0.82876488       3.41026588       0.53500499
Si       3.02232454       6.31707736       0.53500499
Si       2.77095955       2.67965198      11.62988540
Si       1.08012986       7.04769126      11.62988540
Si       2.77095955       2.18401964       5.51162520
Si       1.08012986       7.54332360       5.51162520
Si       2.84421382       2.08927831       9.34900449
Si       1.00687560       7.63806493       9.34900449
Si       2.84421382       2.77439331       3.23074429
Si       1.00687560       6.95294993       3.23074429
Si       0.98078746       5.52367392       6.73606134
Si       2.87030196       4.20366932       6.73606134
Si       0.98078746       9.06734094       0.61780113
Si       2.87030196       0.66000230       0.61780113
Si       0.90537322       1.71342593       2.24632314
Si       2.94571619       8.01391731       2.24632314
Si       0.90537322       3.15024569       8.36458334
Si       2.94571619       6.57709755       8.36458334
Si       1.92554471       4.86367162       2.15877461
Si       1.92554471      -0.00000000       8.27703482
22
Lattice="3.8302934671127455 -1.651061387417553e-32 -1.0436994056511824e-19 4.091653732743152e-32 9.715445252903079 1.8157098204507668e-12 2.0928788010481078e-21 -2.3028053737209083e-12 12.316167589537265" Properties=species:S:1:pos:R:3 unique_starting_index=32 config_type=initial n_minim_iter=10 stress="0.0028364986373361294 5.395821746092362e-17 1.1208891002536948e-16 5.395821746092362e-17 0.0001811802280954149 -5.041390943858805e-17 1.1208891002536948e-16 -5.041390943858805e-17 0.00026079666482525815" pbc="T T T"
Si       0.82890364       1.44808372       6.69793096
Si       3.00138982       8.26736154       6.69793096
Si       0.82890364       3.40963891       0.53984717
Si       3.00138982       6.30580634       0.53984717
Si       2.74733070       2.66791909      11.70343383
Si       1.08296277       7.04752616      11.70343383
Si       2.74733070       2.18980354       5.54535004
Si       1.08296277       7.52564171       5.54535004
Si       2.82246524       2.08564845       9.41228320
Si       1.00782823       7.62979680       9.41228320
Si       2.82246524       2.77207418       3.25419941
Si       1.00782823       6.94337107       3.25419941
Si       0.96575685       5.51817357       6.77655196
Si       2.86453662       4.19727168       6.77655196
Si       0.96575685       9.05499431       0.61846817
Si       2.86453662       0.66045094       0.61846817
Si       0.89852113       1.71001195       2.26482683
Si       2.93177234       8.00543331       2.26482683
Si       0.89852113       3.14771068       8.42291062
Si       2.93177234       6.56773457       8.42291062
Si       1.91514673       4.85772263       2.16849769
Si       1.91514673      -0.00000000       8.32658148
22
Lattice="3.8103620406590455 -1.8160352787683214e-32 -1.0462349385809853e-19 3.681172724828805e-32 9.74866916708229 1.8214154475215802e-12 1.3882159461627426e-21 -2.3045601189035582e-12 12.321910533412051" Properties=species:S:1:pos:R:3 unique_starting_index=32 config_type=initial n_minim_iter=11 stress="-0.0008474299551975314 3.1169061937279495e-17 1.9699885110229694e-16 3.1169061937279495e-17 -0.0002441547317913176 -1.0348267609256538e-16 1.9699885110229694e-16 -1.0348267609256538e-16 -0.0001553921571920553" pbc="T T T"
Si       0.81929116       1.45729038       6.70516133
Si       2.99107088       8.29137878       6.70516133
Si       0.81929116       3.41704420       0.54420607
Si       2.99107088       6.33162497       0.54420607
Si       2.71598558       2.66632867      11.70859784
Si       1.09437646       7.08234050      11.70859784
Si       2.71598558       2.20800592       5.54764257
Si       1.09437646       7.54066325       5.54764257
Si       2.79607084       2.08965609       9.41442336
Si       1.01429120       7.65901307       9.41442336
Si       2.79607084       2.78467849       3.25346810
Si       1.01429120       6.96399068       3.25346810
Si       0.94803798       5.53683832       6.77827452
Si       2.86232406       4.21183085       6.77827452
Si       0.94803798       9.08616543       0.61731925
Si       2.86232406       0.66250374       0.61731925
Si       0.88742054       1.71162095       2.27277662
Si       2.92294150       8.03704822       2.27277662
Si       0.88742054       3.16271364       8.43373189
Si       2.92294150       6.58595553       8.43373189
Si       1.90518102       4.87433458       2.15546555
Si       1.90518102      -0.00000000       8.31642082
22
Lattice="3.7950557448614077 -2.1392163125710658e-32 -1.0512926418187881e-19 2.881905248000473e-32 9.789768482033697 1.829092287770314e-12 7.889764373318196e-22 -2.3118272733685323e-12 12.360737418144659" Properties=species:S:1:pos:R:3 unique_starting_index=32 config_type=initial n_minim_iter=12 stress="-0.0009678330158716032 1.0395460291123505e-17 2.574374920877009e-16 1.0395460291123505e-17 -9.598084357121199e-05 -3.5858542025312073e-16 2.574374920877009e-16 -3.5858542025312073e-16 0.0016333235890896034" pbc="T T T"
Si       0.80440809       1.46341753       6.72791083
Si       2.99064765       8.32635095       6.72791083
Si       0.80440809       3.43146671       0.54754212
Si       2.99064765       6.35830177       0.54754212
Si       2.69278665       2.65151922      11.74601886
Si       1.10226910       7.13824926      11.74601886
Si       2.69278665       2.24336502       5.56565015
Si       1.10226910       7.54640346       5.56565015
Si       2.75968714       2.08849584       9.44578686
Si       1.03536860       7.70127265       9.44578686
Si       2.75968714       2.80638841       3.26541815
Si       1.03536860       6.98338008       3.26541815
Si       0.93138851       5.55995275       6.78985552
Si       2.86366723       4.22981573       6.78985552
Si       0.93138851       9.12469997       0.60948681
Si       2.86366723       0.66506851       0.60948681
Si       0.86344095       1.72421353       2.29148620
Si       2.93161479       8.06555495       2.29148620
Si       0.86344095       3.17067071       8.47185491
Si       2.93161479       6.61909778       8.47185491
Si       1.89752787       4.89488424       2.15102453
Si       1.89752787      -0.00000000       8.33139324
22
Lattice="3.806873655787575 -2.555892108503785e-32 -1.042089140379769e-19 2.0013447806433279e-32 9.88903562519205 1.8474490554074235e-12 2.9883881368858587e-22 -2.2886751208144652e-12 12.235288571393953" Properties=species:S:1:pos:R:3 unique_starting_index=32 config_type=initial n_minim_iter=13 stress="0.0003467121314447139 6.019759004890537e-17 1.956026719762711e-16 6.019759004890537e-17 8.831310458236208e-05 2.1059682382828416e-16 1.956026719762711e-16 2.1059682382828416e-16 -0.0013465358892035418" pbc="T T T"
Si       0.77400880       1.49252217       6.65972908
Si       3.03286486       8.39651346       6.65972908
Si       0.77400880       3.45199565       0.54208479
Si       3.03286486       6.43703998       0.54208479
Si       2.69437347       2.65712391      11.63782836
Si       1.11250019       7.23191172      11.63782836
Si       2.69437347       2.28739391       5.52018407
Si       1.11250019       7.60164172       5.52018407
Si       2.73509635       2.09135304       9.34139397
Si       1.07177730       7.79768259       9.34139397
Si       2.73509635       2.85316477       3.22374968
Si       1.07177730       7.03587085       3.22374968
Si       0.93832138       5.60813571       6.71647466
Si       2.86855227       4.28089991       6.71647466
Si       0.93832138       9.22541772       0.59883037
Si       2.86855227       0.66361790       0.59883037
Si       0.82698341       1.76067387       2.27598337
Si       2.97989024       8.12836175       2.27598337
Si       0.82698341       3.18384394       8.39362765
Si       2.97989024       6.70519169       8.39362765
Si       1.90343683       4.94451781       2.11744568
Si       1.90343683      -0.00000000       8.23508996
22
Lattice="3.7980984424308266 -2.8990057304979323e-32 -1.0476568232791579e-19 1.1505234918596026e-32 9.919491563140848 1.8528262507028383e-12 1.3135465330302232e-22 -2.3002307814603806e-12 12.294847713355727" Properties=species:S:1:pos:R:3 unique_starting_index=32 config_type=initial n_minim_iter=14 stress="0.0003392403736948483 1.8695024959360336e-17 1.7113225407874666e-16 1.8695024959360336e-17 -0.0007161246829785934 -3.680904874552641e-16 1.7113225407874666e-16 -3.680904874552641e-16 0.001148380592225261" pbc="T T T"
Si       0.78388285       1.47963003       6.68181572
Si       3.01421559       8.43986154       6.68181572
Si       0.78388285       3.48011575       0.53439186
Si       3.01421559       6.43937581       0.53439186
Si       2.69490670       2.64193373      11.69795763
Si       1.10319174       7.27755784      11.69795763
Si       2.69490670       2.31781206       5.55053377
Si       1.10319174       7.60167951       5.55053377
Si       2.69812080       2.08097568       9.39954539
Si       1.09997764       7.83851588       9.39954539
Si       2.69812080       2.87877010       3.25212153
Si       1.09997764       7.04072146       3.25212153
Si       0.94312035       5.61415215       6.73826434
Si       2.85497809       4.30533942       6.73826434
Si       0.94312035       9.26508520       0.59084048
Si       2.85497809       0.65440636       0.59084048
Si       0.78385547       1.80553366       2.28337689
Si       3.01424297       8.11395791       2.28337689
Si       0.78385547       3.15421213       8.43080074
Si       3.01424297       6.76527944       8.43080074
Si       1.89904922       4.95974578       2.14528194
Si       1.89904922      -0.00000000       8.29270579
22
Lattice="3.79699128561762 -3.2149000686609504e-32 -1.044969492007609e-19 5.224737731786717e-33 10.037349556260509 1.8747592945986334e-12 5.254709363335404e-23 -2.293980142243618e-12 12.260562242639871" Properties=species:S:1:pos:R:3 unique_starting_index=32 config_type=initial n_minim_iter=15 stress="-0.00015489184463175589 4.627204145432648e-17 2.706391384058512e-16 4.627204145432648e-17 -9.305174399480099e-05 -4.037131726151854e-16 2.706391384058512e-16 -4.037131726151854e-16 0.0016771334030790223" pbc="T T T"
Si       0.76980994       1.50565759       6.65813648
Si       3.02718134       8.53169197       6.65813648
Si       0.76980994       3.51301719       0.52785536
Si       3.02718134       6.52433237       0.52785536
Si       2.66169665       2.63713167      11.67508590
Si       1.13529463       7.40021789      11.67508590
Si       2.66169665       2.38154311       5.54480478
Si       1.13529463       7.65580644       5.54480478
Si       2.63961623       2.07864214       9.37611035
Si       1.15737506       7.95870742       9.37611035
Si       2.63961623       2.94003264       3.24582923
Si       1.15737506       7.09731692       3.24582923
Si       0.94585674       5.65826396       6.71970671
Si       2.85113455       4.37908560       6.71970671
Si       0.94585674       9.39776038       0.58942558
Si       2.85113455       0.63958918       0.58942558
Si       0.71061352       1.86272285       2.27804017
Si       3.08637776       8.17462671       2.27804017
Si       0.71061352       3.15595193       8.40832129
Si       3.08637776       6.88139763       8.40832129
Si       1.89849564       5.01867478       2.12181363
Si       1.89849564      -0.00000000       8.25209475
22
Lattice="3.8015553156986615 -3.444158895321218e-32 -1.0383003866970717e-19 1.4442078831600355e-33 10.162421934820689 1.8979405987263307e-12 1.4526372134969942e-23 -2.2794084982817417e-12 12.180984632201657" Properties=species:S:1:pos:R:3 unique_starting_index=32 config_type=initial n_minim_iter=16 stress="-0.00026390841052860464 -6.178219561073492e-17 2.2129997537200774e-16 -6.178219561073492e-17 0.0007216495784482107 3.8264452423706154e-17 2.2129997537200774e-16 3.8264452423706154e-17 -0.000381035151477967" pbc="T T T"
Si       0.74955464       1.54226180       6.60962482
Si       3.05200067       8.62016013       6.60962482
Si       0.74955464       3.53894917       0.51913250
Si       3.05200067       6.62347277       0.51913250
Si       2.61943606       2.63379396      11.60886586
Si       1.18211926       7.52862797      11.60886586
Si       2.61943606       2.44741700       5.51837354
Si       1.18211926       7.71500493       5.51837354
Si       2.58042993       2.08091013       9.31660737
Si       1.22112539       8.08151181       9.31660737
Si       2.58042993       3.00030084       3.22611505
Si       1.22112539       7.16212110       3.22611505
Si       0.94409982       5.70959195       6.68487848
Si       2.85745550       4.45282998       6.68487848
Si       0.94409982       9.53404095       0.59438616
Si       2.85745550       0.62838098       0.59438616
Si       0.63464954       1.91185246       2.26459606
Si       3.16690577       8.25056947       2.26459606
Si       0.63464954       3.16935851       8.35508838
Si       3.16690577       6.99306343       8.35508838
Si       1.90077766       5.08121097       2.07655878
Si       1.90077766      -0.00000000       8.16705110
22
Lattice="3.8085612244405787 -3.4877505567191104e-32 -1.0396787293754503e-19 3.007326997186947e-34 10.16216427490284 1.898375680367726e-12 4.1355808564018735e-24 -2.2817102912890766e-12 12.196791780649724" Properties=species:S:1:pos:R:3 unique_starting_index=32 config_type=initial n_minim_iter=17 stress="-0.00019658845198046562 -5.512248049944052e-17 1.7057463352882464e-16 -5.512248049944052e-17 -0.0008561413080351138 -9.947472810640608e-17 1.7057463352882464e-16 -9.947472810640608e-17 -0.0014309410914217179" pbc="T T T"
Si       0.73447972       1.55802061       6.60293773
Si       3.07408150       8.60414366       6.60293773
Si       0.73447972       3.52306153       0.50454184
Si       3.07408150       6.63910275       0.50454184
Si       2.58999705       2.61983920      11.62759752
Si       1.21856417       7.54232508      11.62759752
Si       2.58999705       2.46124294       5.52920163
Si       1.21856417       7.70092133       5.52920163
Si       2.53859391       2.08028372       9.33544070
Si       1.26996731       8.08188055       9.33544070
Si       2.53859391       3.00079841       3.23704481
Si       1.26996731       7.16136586       3.23704481
Si       0.93954796       5.71199397       6.72031733
Si       2.86901326       4.45017030       6.72031733
Si       0.93954796       9.53125244       0.62192144
Si       2.86901326       0.63091183       0.62192144
Si       0.57754390       1.91752508       2.26118923
Si       3.23101733       8.24463919       2.26118923
Si       0.57754390       3.16355706       8.35958513
Si       3.23101733       6.99860722       8.35958513
Si       1.90428061       5.08108214       2.04812501
Si       1.90428061      -0.00000000       8.14652090
22
Lattice="3.8047238404360204 -3.527290766209001e-32 -1.0430930699573735e-19 2.5651097354961104e-35 10.227530488587975 1.9105387847886083e-12 9.106600909024385e-25 -2.2892594403208046e-12 12.236734197631904" Properties=species:S:1:pos:R:3 unique_starting_index=32 config_type=initial n_minim_iter=18 stress="0.00013898332243151142 -4.275539347787389e-17 1.978918254881556e-16 -4.275539347787389e-17 -0.0021902666432201813 -1.3423089890879824e-16 1.978918254881556e-16 -1.3423089890879824e-16 -0.0026667388678541797" pbc="T T T"
Si       0.71063466       1.56804932       6.58630249
Si       3.09408918       8.65948117       6.58630249
Si       0.71063466       3.54571592       0.46793540
Si       3.09408918       6.68181456       0.46793540
Si       2.56686216       2.60247752      11.67248617
Si       1.23786168       7.62505297      11.67248617
Si       2.56686216       2.51128772       5.55411907
Si       1.23786168       7.71624277       5.55411907
Si       2.44072805       2.08842516       9.38568108
Si       1.36399579       8.13910533       9.38568108
Si       2.44072805       3.02534009       3.26731398
Si       1.36399579       7.20219040       3.26731398
Si       0.93139372       5.75955289       6.77761924
Si       2.87333012       4.46797760       6.77761924
Si       0.93139372       9.58174284       0.65925215
Si       2.87333012       0.64578765       0.65925215
Si       0.46342464       1.97261783       2.25667123
Si       3.34129920       8.25491266       2.25667123
Si       0.46342464       3.14114742       8.37503832
Si       3.34129920       7.08638307       8.37503832
Si       1.90236192       5.11376524       2.03165047
Si       1.90236192      -0.00000000       8.15001757
22
Lattice="3.7986030861702758 -3.5625409867542584e-32 -1.0465922405418537e-19 2.6952235596221764e-36 10.304109935317662 1.924725630108969e-12 3.834971040441391e-25 -2.2971095434260752e-12 12.27776537823066" Properties=species:S:1:pos:R:3 unique_starting_index=32 config_type=initial n_minim_iter=19 stress="0.00031126485898397765 -1.1343262740923475e-16 1.7952427992732114e-16 -1.1343262740923475e-16 -0.0004983839625480624 -1.48076816794778e-17 1.7952427992732114e-16 -1.48076816794778e-17 -0.001136199583058587" pbc="T T T"
Si       0.69588257       1.57108207       6.58635478
Si       3.10272052       8.73302787       6.58635478
Si       0.69588257       3.58097290       0.44747209
Si       3.10272052       6.72313704       0.44747209
Si       2.56107163       2.59984453      11.71772061
Si       1.23753145       7.70426540      11.71772061
Si       2.56107163       2.55221044       5.57883792
Si       1.23753145       7.75189950       5.57883792
Si       2.37189181       2.09597583       9.42367002
Si       1.42671127       8.20813411       9.42367002
Si       2.37189181       3.05607914       3.28478733
Si       1.42671127       7.24803080       3.28478733
Si       0.92512978       5.80567786       6.81690675
Si       2.87347331       4.49843208       6.81690675
Si       0.92512978       9.65048705       0.67802406
Si       2.87347331       0.65362289       0.67802406
Si       0.39249743       2.02977426       2.25916346
Si       3.40610566       8.27433567       2.25916346
Si       0.39249743       3.12228071       8.39804615
Si       3.40610566       7.18182923       8.39804615
Si       1.89930154       5.15205497       2.03432822
Si       1.89930154      -0.00000000       8.17321091
22
Lattice="3.79658681316579 -3.5527512318983724e-32 -1.0511433122495634e-19 5.9535847135486305e-37 10.302277033161394 1.9240414420252624e-12 2.692833961775319e-25 -2.3075397618676272e-12 12.331150885386995" Properties=species:S:1:pos:R:3 unique_starting_index=32 config_type=initial n_minim_iter=20 stress="0.00022800550933463486 -1.1308636598144176e-16 1.8692328534475281e-16 -1.1308636598144176e-16 0.0007518587589683241 -2.4653126532007046e-16 1.8692328534475281e-16 -2.4653126532007046e-16 0.0011936314593240405" pbc="T T T"
Si       0.69588968       1.55256469       6.60287699
Si       3.10069713       8.74971234       6.60287699
Si       0.69588968       3.59857382       0.43730155
Si       3.10069713       6.70370321       0.43730155
Si       2.57643892       2.60254168      11.76702817
Si       1.22014789       7.69973535      11.76702817
Si       2.57643892       2.54859684       5.60145273
Si       1.22014789       7.75368020       5.60145273
Si       2.34221045       2.09994687       9.46349791
Si       1.45437636       8.20233017       9.46349791
Si       2.34221045       3.05119165       3.29792246
Si       1.45437636       7.25108538       3.29792246
Si       0.92297086       5.81058343       6.85922246
Si       2.87361595       4.49169360       6.85922246
Si       0.92297086       9.64283212       0.69364702
Si       2.87361595       0.65944491       0.69364702
Si       0.37377006       2.05530604       2.26525221
Si       3.42281675       8.24697099       2.26525221
Si       0.37377006       3.09583248       8.43082765
Si       3.42281675       7.20644456       8.43082765
Si       1.89829341       5.15113852       2.05510623
Si       1.89829341      -0.00000000       8.22068167
22
Lattice="3.797775375482499 -3.569507953985629e-32 -1.0516374963185764e-19 4.1597489476292733e-38 10.335620645498347 1.9300999504640713e-12 1.4428287039891406e-25 -2.3088649848131695e-12 12.33694388828285" Properties=species:S:1:pos:R:3 unique_starting_index=32 config_type=initial n_minim_iter=21 stress="0.0007466714008937683 -2.517610749313992e-16 2.1898742789539563e-16 -2.517610749313992e-16 0.002425540890853147 6.95228912464188e-17 2.1898742789539563e-16 6.95228912464188e-17 0.0014880378384566138" pbc="T T T"
Si       0.68059802       1.53647919       6.59040736
Si       3.11717736       8.79914145       6.59040736
Si       0.68059802       3.63133113       0.42193541
Si       3.11717736       6.70428952       0.42193541
Si       2.56906247       2.59007113      11.76633897
Si       1.22871291       7.74554951      11.76633897
Si       2.56906247       2.57773919       5.59786702
Si       1.22871291       7.75788146       5.59786702
Si       2.26267914       2.10144335       9.46457487
Si       1.53509624       8.23417729       9.46457487
Si       2.26267914       3.06636697       3.29610292
Si       1.53509624       7.26925368       3.29610292
Si       0.92393790       5.82537410       6.88654591
Si       2.87383748       4.51024655       6.88654591
Si       0.92393790       9.67805687       0.71807397
Si       2.87383748       0.65756378       0.71807397
Si       0.30909889       2.10548841       2.26940990
Si       3.48867649       8.23013224       2.26940990
Si       0.30909889       3.06232191       8.43788185
Si       3.48867649       7.27329873       8.43788185
Si       1.89888769       5.16781032       2.05199773
Si       1.89888769      -0.00000000       8.22046968
