4
Lattice="5.124739799863426 -0.09072814134439403 8.600259596993068e-13 2.117590330152873 4.667654743613658 2.712100009378993e-12 -3.6211650650086464 -2.2884633011360425 2.814478442491697" Properties=species:S:1:pos:R:3:tags:I:1 spacegroup="P 1" unit_cell=conventional n_minim_iter=1 energy=-1924.4746652916242 free_energy=-1924.4746652916242 pbc="T T T"
Ti       0.00000000       0.00000000       0.00000000        0
Al       3.62116507       2.28846330       0.00000000        1
Al       2.56236990      -0.04536407       1.40723922        2
Al       1.05879517       2.33382737       1.40723922        3
