4
Lattice="5.0440217827870715 -0.08929911354037535 8.421622648878842e-13 2.0842368919091263 4.594136116324221 2.6643647610015656e-12 -3.5641293373485885 -2.2524185013933082 2.7701485588577786" Properties=species:S:1:pos:R:3:tags:I:1 spacegroup="P 1" unit_cell=conventional n_minim_iter=3 pbc="T T T"
Ti       0.00000000       0.00000000       0.00000000        0
Al       3.56412934       2.25241850       0.00000000        1
Al       2.52201089      -0.04464956       1.38507428        2
Al       1.04211845       2.29706806       1.38507428        3
