4
Lattice="4.984856795499438 -0.003374977694645667 8.799044215355506e-13 2.136450801732595 4.503819116470766 2.6309481759743476e-12 -3.5606537986164866 -2.250222069389394 2.6659058173428125" Properties=species:S:1:pos:R:3:tags:I:1 spacegroup="P 1" unit_cell=conventional n_minim_iter=1 energy=-1924.4769757046233 free_energy=-1924.4769757046233 pbc="T T T"
Ti       0.00000000       0.00000000       0.00000000        0
Al       3.56065380       2.25022207       0.00000000        1
Al       2.49242840      -0.00168749       1.33295291        2
Al       1.06822540       2.25190956       1.33295291        3
