4
Lattice="5.333734363594158 -0.00361118388046052 9.413557672010963e-13 2.2859756106971023 4.819030069353397 2.8129697421141852e-12 -3.809854987146135 -2.4077094427378944 2.852485848922427" Properties=species:S:1:pos:R:3:tags:I:1 spacegroup="P 1" unit_cell=conventional n_minim_iter=1 energy=-1923.5292121232926 free_energy=-1923.5292121232926 pbc="T T T"
Ti       0.00000000       0.00000000       0.00000000        0
Al       3.80985499       2.40770944       0.00000000        1
Al       2.66686718      -0.00180559       1.42624292        2
Al       1.14298781       2.40951503       1.42624292        3
