4
Lattice="5.184459990274365 -0.0035101182529004944 9.16677074782509e-13 2.2219983757151214 4.684160643061378 2.7378869243776157e-12 -3.7032291829952353 -2.340325262405627 2.772653782217373" Properties=species:S:1:pos:R:3:tags:I:1 spacegroup="P 1" unit_cell=conventional n_minim_iter=1 energy=-1924.1644377524685 free_energy=-1924.1644377524685 pbc="T T T"
Ti       0.00000000       0.00000000       0.00000000        0
Al       3.70322918       2.34032526       0.00000000        1
Al       2.59223000      -0.00175506       1.38632689        2
Al       1.11099919       2.34208032       1.38632689        3
