8
Lattice="5.127739788959893 1.8607631449197372e-17 7.086451553868034e-48 -2.5638698944799465 4.440752921235523 -8.88284925318572e-48 -5.788198410725321e-48 5.036102831696976e-48 4.188326847570145" Properties=species:S:1:pos:R:3:tags:I:1 spacegroup="P 1" unit_cell=conventional n_minim_iter=1 energy=-9779.093399875916 free_energy=-9779.093399875916 pbc="T T T"
Ti       2.56386990       2.95754315       1.04708171        0
Ti      -1.27936870       3.69915026       3.14124513        1
Ti       1.27936871       3.69915026       3.14124513        2
Ti       1.28450120       0.74161155       1.04708171        3
Ti       3.84323860       0.74161155       1.04708171        4
Ti       0.00000000       1.48321866       3.14124513        5
Al       0.00000000       2.96050639       1.04708171        6
Al       2.56386990       1.48025542       3.14124513        7
8
Lattice="5.135636648703479 1.1210117564594151e-17 7.101674691073744e-48 -2.5678183243517396 4.447591802383592 -8.887909468996187e-48 -5.766891299771486e-48 5.030789180123224e-48 4.1754563105055675" Properties=species:S:1:pos:R:3:tags:I:1 spacegroup="P 1" unit_cell=conventional n_minim_iter=2 stress="-0.4336342156145918 1.296239401767798e-16 -9.648813757709914e-17 1.296239401767798e-16 -0.43363421561459214 -1.526758955801234e-16 -9.648813757709914e-17 -1.526758955801234e-16 -0.43602773454749255" pbc="T T T"
Ti       2.56781833       2.95967702       1.04386408        0
Ti      -1.27924246       3.70363663       3.13159223        1
Ti       1.27924247       3.70363663       3.13159223        2
Ti       1.28857586       0.74396407       1.04386408        3
Ti       3.84706079       0.74396407       1.04386408        4
Ti       0.00000000       1.48792369       3.13159223        5
Al       0.00000000       2.96506565       1.04386408        6
Al       2.56781833       1.48253505       3.13159223        7
8
Lattice="5.132637728766893 1.19168054249139e-17 6.442766783092535e-48 -2.5663188643834465 4.444994661534594 -1.0410060667468905e-47 -5.59678489650183e-48 6.368941122364878e-48 4.180337043570725" Properties=species:S:1:pos:R:3:tags:I:1 spacegroup="P 1" unit_cell=conventional n_minim_iter=3 stress="-0.43339492907377397 1.4573753705992862e-16 -6.884530405949394e-18 1.4573753705992862e-16 -0.43339492907377497 8.100331377361294e-19 -6.884530405949394e-18 8.100331377361294e-19 -0.43344532165341343" pbc="T T T"
Ti       2.56631887       2.95513190       1.04508426        0
Ti      -1.27605601       3.70006550       3.13525278        1
Ti       1.27605601       3.70006550       3.13525278        2
Ti       1.29026286       0.74493806       1.04508426        3
Ti       3.84237488       0.74493806       1.04508426        4
Ti       0.00000000       1.48987166       3.13525278        5
Al       0.00000000       2.96333422       1.04508426        6
Al       2.56631887       1.48166934       3.13525278        7
