8
Lattice="6.13015555494212 3.6680012032390905e-17 2.5710869000962498e-48 -3.06507777747106 5.308870439730168 -2.296161891969093e-47 -2.0485357277334747e-48 1.9942371845604583e-47 4.8842544646751" Properties=species:S:1:pos:R:3:tags:I:1 spacegroup="P 1" unit_cell=conventional n_minim_iter=1 energy=-9782.133117770607 free_energy=-9782.133117770607 pbc="T T T"
Ti       3.06507778       3.60509896       1.22106361        0
Ti      -1.58956379       4.45698736       3.66319085        1
Ti       1.58956380       4.45698736       3.66319085        2
Ti       1.47551399       0.85189371       1.22106361        3
Ti       4.65464158       0.85189371       1.22106361        4
Ti       0.00000001       1.70378210       3.66319085        5
Al       0.00000001       3.53925227       1.22106361        6
Al       3.06507778       1.76962879       3.66319085        7
8
Lattice="6.116872713948188 3.612090873463548e-17 2.7866944818068814e-48 -3.058436356974094 5.2973671619949965 -2.263368433911996e-47 -1.916640376815618e-48 2.0023038239633996e-47 4.905489896144583" Properties=species:S:1:pos:R:3:tags:I:1 spacegroup="P 1" unit_cell=conventional n_minim_iter=2 stress="0.09895268664400414 4.1172401818950445e-17 2.4547856084113584e-17 4.1172401818950445e-17 0.09895268664400426 -7.167410337640624e-17 2.4547856084113584e-17 -7.167410337640624e-17 0.09908401866464833" pbc="T T T"
Ti       3.05843636       3.59776068       1.22637247        0
Ti      -1.58652937       4.44756657       3.67911742        1
Ti       1.58652938       4.44756657       3.67911742        2
Ti       1.47190699       0.84981120       1.22637247        3
Ti       4.64496573       0.84981120       1.22637247        4
Ti       0.00000001       1.69961709       3.67911742        5
Al       0.00000001       3.53158341       1.22637247        6
Al       3.05843636       1.76579436       3.67911742        7
8
Lattice="6.118138645264212 2.0593378073270176e-17 -2.2546078119358027e-48 -3.059069322632106 5.298463490674119 -3.944633560638231e-47 -1.3193273688969597e-48 2.1220256625784973e-47 4.90346007264131" Properties=species:S:1:pos:R:3:tags:I:1 spacegroup="P 1" unit_cell=conventional n_minim_iter=3 stress="0.09841342402595725 1.1705268267997628e-16 2.8203479715888155e-17 1.1705268267997628e-16 0.09841342402595739 -3.419594657520031e-17 2.8203479715888155e-17 -3.419594657520031e-17 0.09867730252917811" pbc="T T T"
Ti       3.05906933       3.60432901       1.22586502        0
Ti      -1.59190123       4.45139890       3.67759505        1
Ti       1.59190124       4.45139890       3.67759505        2
Ti       1.46716810       0.84707520       1.22586502        3
Ti       4.65097056       0.84707520       1.22586502        4
Ti       0.00000001       1.69414509       3.67759505        5
Al       0.00000001       3.53231430       1.22586502        6
Al       3.05906933       1.76615980       3.67759505        7
