8
Lattice="5.8545463290104705 -3.530869125700111e-19 9.816378112420799e-49 -2.9272731645052352 5.070185848555996 -2.597300218576857e-47 -7.721670416068207e-49 2.3145469012767375e-47 4.605250192127378" Properties=species:S:1:pos:R:3:tags:I:1 spacegroup="P 1" unit_cell=conventional n_minim_iter=1 energy=-9783.713743907101 free_energy=-9783.713743907101 pbc="T T T"
Ti       2.92727317       3.42061812       1.15131255        0
Ti      -1.49870121       4.24540452       3.45393764        1
Ti       1.49870122       4.24540452       3.45393764        2
Ti       1.42857196       0.82479148       1.15131255        3
Ti       4.42597438       0.82479148       1.15131255        4
Ti       0.00000001       1.64957788       3.45393764        5
Al       0.00000001       3.38012897       1.15131255        6
Al       2.92727317       1.69006702       3.45393764        7
8
Lattice="5.870951788577639 1.9581314938274068e-17 3.8996275726650334e-49 -2.9354758942888197 5.084393393301921 -2.6637175735399205e-47 -1.154885556532072e-48 2.3516056089542877e-47 4.579548844049223" Properties=species:S:1:pos:R:3:tags:I:1 spacegroup="P 1" unit_cell=conventional n_minim_iter=2 stress="0.03579699953533855 1.3845676561095988e-17 -1.0376450737736026e-16 1.3845676561095988e-17 0.035796999535338034 -7.307119817822837e-18 -1.0376450737736026e-16 -7.307119817822837e-18 0.03578637454801849" pbc="T T T"
Ti       2.93547590       3.43029923       1.14488721        0
Ti      -1.50298392       4.25734886       3.43466163        1
Ti       1.50298393       4.25734886       3.43466163        2
Ti       1.43249198       0.82705472       1.14488721        3
Ti       4.43845982       0.82705472       1.14488721        4
Ti       0.00000001       1.65410434       3.43466163        5
Al       0.00000001       3.38960068       1.14488721        6
Al       2.93547590       1.69480289       3.43466163        7
8
Lattice="5.870971983714856 3.605246546761901e-17 3.1651359966859954e-49 -2.935485991857428 5.084410882803785 -2.6538407029001967e-47 -6.47912560774926e-49 2.49779980099629e-47 4.579517338377427" Properties=species:S:1:pos:R:3:tags:I:1 spacegroup="P 1" unit_cell=conventional n_minim_iter=3 stress="0.03578011815800529 -1.8125758130569425e-16 -6.198225880111195e-17 -1.8125758130569425e-16 0.03578011815800539 -2.3600331679388734e-17 -6.198225880111195e-17 -2.3600331679388734e-17 0.03577537699220148" pbc="T T T"
Ti       2.93548600       3.43130924       1.14487933        0
Ti      -1.50385356       4.25786261       3.43463800        1
Ti       1.50385357       4.25786261       3.43463800        2
Ti       1.43163243       0.82655846       1.14487933        3
Ti       4.43933956       0.82655846       1.14487933        4
Ti       0.00000001       1.65311182       3.43463800        5
Al       0.00000001       3.38961234       1.14487933        6
Al       2.93548600       1.69480872       3.43463800        7
