2
Lattice="3.2924927281524994 0.0 0.0 0.0 3.2924927281524994 0.0 0.0 0.0 3.2924927281524994" Properties=species:S:1:pos:R:3 Minim_Constant_Volume=F n_minim_iter=1 stress="0.04799231318291834 -6.690540573729253e-17 5.421645413222888e-19 -6.690540573729253e-17 0.04799231318291829 3.181233841459569e-18 5.421645413222888e-19 3.181233841459569e-18 0.047992313182918266" pbc="T T T"
Ti       0.00000000       0.00000000       0.00000000
Ti       1.64624636       1.64624636       1.64624636
