2
Lattice="3.112063992793871 0.0 0.0 0.0 3.112063992793871 0.0 0.0 0.0 3.112063992793871" Properties=species:S:1:pos:R:3 Minim_Constant_Volume=F n_minim_iter=1 stress="-0.04337796706212355 6.38431250411666e-17 3.982821052827342e-17 6.38431250411666e-17 -0.04337796706212358 2.457607788377565e-17 3.982821052827342e-17 2.457607788377565e-17 -0.04337796706212337" pbc="T T T"
Ti       0.00000000       0.00000000       0.00000000
Ti       1.55603200       1.55603200       1.55603200
