2
Lattice="2.697769396704155 -1.3553675395558327e-52 -1.1533906099390396e-35 2.707936800884542e-52 2.697769396704155 3.163646321282425e-17 1.6622017120504189e-35 -4.5592692416973906e-17 3.887873606111531" Properties=species:S:1:pos:R:3:tags:I:1 spacegroup="P 1" unit_cell=conventional n_minim_iter=1 energy=-1704.2169494665595 free_energy=-1704.2169494665595 pbc="T T T"
Ti       1.34888470       1.34888470       1.94393681        0
Al       0.00000000       0.00000000       0.00000000        1
