2
Lattice="2.515617847853105 -1.263854048115774e-52 -1.0755144629683905e-35 2.525098755840927e-52 2.515617847853105 2.9500390803734966e-17 1.549970986650856e-35 -4.251430493500931e-17 3.6253670331051384" Properties=species:S:1:pos:R:3:tags:I:1 spacegroup="P 1" unit_cell=conventional n_minim_iter=1 energy=-1703.1349316306937 free_energy=-1703.1349316306937 pbc="T T T"
Ti       1.25780892       1.25780892       1.81268352        0
Al       0.00000000       0.00000000       0.00000000        1
