4
Lattice="5.125701254544433 0.03671152452523075 9.216028916749458e-13 2.2331077175155505 4.613826070501987 2.7017344893589214e-12 -3.679404486030469 -2.325268797514964 2.7072622212030923" Properties=species:S:1:pos:R:3:tags:I:1 spacegroup="P 1" unit_cell=conventional n_minim_iter=1 energy=-1924.4799869727483 free_energy=-1924.4799869727483 pbc="T T T"
Ti       0.00000000       0.00000000       0.00000000        0
Al       3.67940449       2.32526880       0.00000000        1
Al       2.56285063       0.01835576       1.35363111        2
Al       1.11655386       2.30691304       1.35363111        3
4
Lattice="5.084075904332264 -0.012442639995278754 8.89542694047665e-13 2.1708456151709337 4.597326607431224 2.6823730775552007e-12 -3.6274607597520823 -2.292441983719339 2.7265767563085017" Properties=species:S:1:pos:R:3:tags:I:1 spacegroup="P 1" unit_cell=conventional n_minim_iter=2 stress="0.06174448756037782 0.0017803166494435184 6.045144399848475e-16 0.0017803166494435184 0.06005249627310776 3.863400663961855e-16 6.045144399848475e-16 3.863400663961855e-16 0.058927391716008234" pbc="T T T"
Ti       0.00000000       0.00000000       0.00000000        0
Al       3.62746076       2.29244198       0.00000000        1
Al       2.54203795      -0.00622132       1.36328838        2
Al       1.08542281       2.29866330       1.36328838        3
