4
Lattice="4.91879063222258 0.03522958010266899 8.840611026442984e-13 2.1429632310156395 4.427578457517137 2.5920282037276393e-12 -3.530876931619567 -2.2314040188112028 2.597977406665582" Properties=species:S:1:pos:R:3:tags:I:1 spacegroup="P 1" unit_cell=conventional n_minim_iter=1 energy=-1924.574342628632 free_energy=-1924.574342628632 pbc="T T T"
Ti       0.00000000       0.00000000       0.00000000        0
Al       3.53087693       2.23140402       0.00000000        1
Al       2.45939532       0.01761479       1.29898870        2
Al       1.07148162       2.21378923       1.29898870        3
4
Lattice="4.980756043532251 0.10728704511631844 9.309427860950849e-13 2.234641762952874 4.452619169264277 2.620698096393055e-12 -3.607698903243014 -2.279953107191583 2.5701680349306777" Properties=species:S:1:pos:R:3:tags:I:1 spacegroup="P 1" unit_cell=conventional n_minim_iter=2 stress="-0.020790097440848417 0.0028009142526174606 2.5776258228617787e-15 0.0028009142526174606 -0.023452052275287093 1.7548712536966709e-15 2.5776258228617787e-15 1.7548712536966709e-15 -0.0252221426637866" pbc="T T T"
Ti       0.00000000       0.00000000       0.00000000        0
Al       3.60769890       2.27995311       0.00000000        1
Al       2.49037802       0.05364352       1.28508402        2
Al       1.11732088       2.22630958       1.28508402        3
