2
Lattice="2.6731074085649085 1.1560551536558134e-67 1.2548563479865593e-53 -1.1546051050017767e-67 2.6731074085649085 -3.0889079902290937e-17 -1.8090244191618995e-53 4.4530276249027574e-17 3.8536017169578836" Properties=species:S:1:pos:R:3:tags:I:1 spacegroup="P 1" unit_cell=conventional n_minim_iter=1 energy=-1704.150267410894 free_energy=-1704.150267410894 pbc="T T T"
Ti       1.33655370       1.33655370       1.92680086        0
Al       0.00000000       0.00000000       0.00000000        1
