2
Lattice="2.7217199804556103 1.1770789307351195e-67 1.2776769029083494e-53 -1.1756025117997341e-67 2.7217199804556103 -3.145082224477087e-17 -1.841922958646983e-53 4.5340094533370565e-17 3.92368251128119" Properties=species:S:1:pos:R:3:tags:I:1 spacegroup="P 1" unit_cell=conventional n_minim_iter=1 energy=-1704.2619056824738 free_energy=-1704.2619056824738 pbc="T T T"
Ti       1.36085999       1.36085999       1.96184126        0
Al       0.00000000       0.00000000       0.00000000        1
