4
Lattice="4.981388012253546 -0.012319112200777978 8.689360422705056e-13 2.1268835726877002 4.504524898075262 2.6273072686718285e-12 -3.554135792471093 -2.2461028929385805 2.671613529715249" Properties=species:S:1:pos:R:3:tags:I:1 spacegroup="P 1" unit_cell=conventional n_minim_iter=1 energy=-1924.6115450119455 free_energy=-1924.6115450119455 pbc="T T T"
Ti       0.00000000       0.00000000       0.00000000        0
Al       3.55413579       2.24610289       0.00000000        1
Al       2.49069401      -0.00615956       1.33580676        2
Al       1.06344179       2.25226245       1.33580676        3
