4
Lattice="5.087887319999521 7.565505387386569e-13 8.949401069404353e-13 2.183719785742836 4.595428737165575 2.682621221191863e-12 -3.635803552871657 -2.297714368584526 2.718094661033344" Properties=species:S:1:pos:R:3:tags:I:1 spacegroup="P 1" unit_cell=conventional n_minim_iter=1 energy=-1924.5052649293962 free_energy=-1924.5052649293962 pbc="T T T"
Ti       0.00000000       0.00000000       0.00000000        0
Al       3.63580355       2.29771437       0.00000000        1
Al       2.54394366      -0.00000000       1.35904733        2
Al       1.09185989       2.29771437       1.35904733        3
4
Lattice="4.981388012253545 -0.012319112200776139 8.698455737838076e-13 2.1268835726876985 4.504524898075266 2.6269890089112706e-12 -3.554135792471091 -2.246102892938582 2.6716135297152492" Properties=species:S:1:pos:R:3:tags:I:1 spacegroup="P 1" unit_cell=conventional n_minim_iter=2 stress="-0.005094440613550087 -0.007249666976386767 -5.586150750379786e-15 -0.007249666976386767 0.0017955546934574804 -3.608690238880162e-15 -5.586150750379786e-15 -3.608690238880162e-15 0.006377117953642028" pbc="T T T"
Ti       0.00000000       0.00000000       0.00000000        0
Al       3.55413579       2.24610289       0.00000000        1
Al       2.49069401      -0.00615956       1.33580676        2
Al       1.06344179       2.25226245       1.33580676        3
