2
Lattice="2.5846851109458484 -7.739675355311851e-16 6.039426769562116e-41 -1.2923425554729235 2.2384029668625054 2.2328338354041513e-25 -2.582180550338581e-40 -4.282411006486765e-25 4.29309219085242" Properties=species:S:1:pos:R:3 n_minim_iter=1 energy=-3186.364214841101 free_energy=-3186.364214841101 pbc="T T T"
Ti       0.00000000       0.00000000       0.00000000
Ti       0.00000000       1.49226864       2.14654610
2
Lattice="2.5542090823073496 -7.705166876120828e-16 7.367596281707851e-41 -1.277104541153674 2.2120099518551037 2.206506486039771e-25 -2.401747550565967e-40 -4.385213466167318e-25 4.396151060303876" Properties=species:S:1:pos:R:3 n_minim_iter=2 stress="-0.275442162412261 4.517064890681401e-16 -1.1140702388157047e-17 4.517064890681401e-16 -0.27544216241225983 1.3095298407583959e-18 -1.1140702388157047e-17 1.3095298407583959e-18 -0.2750594956552626" pbc="T T T"
Ti      -0.00000000       0.00000000       0.00000000
Ti       0.00000000       1.47467330       2.19807553
