2
Lattice="3.217637266967096 0.0 0.0 0.0 3.2176372669670967 0.0 0.0 0.0 3.217637266967096" Properties=species:S:1:pos:R:3 Minim_Constant_Volume=F n_minim_iter=1 stress="0.01766075731565693 6.94646344051051e-18 -6.39859756760535e-17 6.94646344051051e-18 0.017660757315657312 4.906968335219337e-17 -6.39859756760535e-17 4.906968335219337e-17 0.017660757315656656" pbc="T T T"
Ti       0.00000000       0.00000000       0.00000000
Ti       1.60881863       1.60881863       1.60881863
