2
Lattice="3.3167031029719376 0.0 0.0 0.0 3.3167031029719376 0.0 0.0 0.0 3.3167031029719376" Properties=species:S:1:pos:R:3 Minim_Constant_Volume=F n_minim_iter=1 stress="0.058173515205907335 -8.118476379969493e-18 -4.481147739031255e-17 -8.118476379969493e-18 0.058173515205907286 -3.645163776672426e-18 -4.481147739031255e-17 -3.645163776672426e-18 0.05817351520590719" pbc="T T T"
Ti       0.00000000       0.00000000       0.00000000
Ti       1.65835155       1.65835155       1.65835155
