2
Lattice="3.2176372669670954 0.0 0.0 0.0 3.2176372669670963 0.0 0.0 0.0 3.2176372669670954" Properties=species:S:1:pos:R:3 Minim_Constant_Volume=F n_minim_iter=1 stress="0.03330884985546616 -3.3325308178403644e-17 6.219515196644429e-17 -3.3325308178403644e-17 0.033308849855466026 -8.279729149870223e-18 6.219515196644429e-17 -8.279729149870223e-18 0.033308849855466" pbc="T T T"
Ti       0.00000000       0.00000000       0.00000000
Ti       1.60881863       1.60881863       1.60881863
