2
Lattice="3.3640909782272583 0.0 0.0 0.0 3.3640909782272583 0.0 0.0 0.0 3.3640909782272583" Properties=species:S:1:pos:R:3 Minim_Constant_Volume=F n_minim_iter=1 stress="0.052859139269787477 6.348258568583063e-17 2.736419538271855e-18 6.348258568583063e-17 0.05285913926978757 -9.4774258193483e-18 2.736419538271855e-18 -9.4774258193483e-18 0.05285913926978743" pbc="T T T"
Ti       0.00000000       0.00000000       0.00000000
Ti       1.68204549       1.68204549       1.68204549
