8
Lattice="5.509669999978464 -4.0269337146708434e-16 1.6488126584256332e-48 -2.7548349999892316 4.771514186450357 -1.0866973931746966e-47 -1.2739146179690663e-48 8.959486931327732e-48 4.256911249007594" Properties=species:S:1:pos:R:3:tags:I:1 spacegroup="P 1" unit_cell=conventional n_minim_iter=1 energy=-9782.510699697401 free_energy=-9782.510699697401 pbc="T T T"
Ti       2.75483500       3.20467318       1.06422781        0
Ti      -1.39790674       3.98809607       3.19268343        1
Ti       1.39790675       3.98809607       3.19268343        2
Ti       1.35692826       0.78342767       1.06422781        3
Ti       4.15274175       0.78342767       1.06422781        4
Ti       0.00000000       1.56685056       3.19268343        5
Al       0.00000000       3.18101423       1.06422781        6
Al       2.75483500       1.59050950       3.19268343        7
8
Lattice="5.546574567665794 -4.170503667913197e-16 2.157972192762879e-48 -2.7732872838328966 4.803474479583268 -1.136058353800366e-47 -1.0891644011826383e-48 8.944529037214085e-48 4.200452319044688" Properties=species:S:1:pos:R:3:tags:I:1 spacegroup="P 1" unit_cell=conventional n_minim_iter=2 stress="-0.10267567247141765 -3.3554644864005483e-16 8.029023066506437e-18 -3.3554644864005483e-16 -0.10267567247142097 -1.763565152557609e-16 8.029023066506437e-18 -1.763565152557609e-16 -0.10365317614092608" pbc="T T T"
Ti       2.77328729       3.22744634       1.05011308        0
Ti      -1.40840271       4.01546281       3.15033924        1
Ti       1.40840272       4.01546281       3.15033924        2
Ti       1.36488458       0.78802128       1.05011308        3
Ti       4.18169000       0.78802128       1.05011308        4
Ti       0.00000000       1.57603776       3.15033924        5
Al       0.00000000       3.20232113       1.05011308        6
Al       2.77328729       1.60116297       3.15033924        7
8
Lattice="5.543911223331064 -3.586553613676269e-16 1.5195754892327476e-48 -2.7719556116655317 4.801167955730367 -1.6703954983187203e-47 7.351289949772944e-49 7.5301416170669e-48 4.20448915789868" Properties=species:S:1:pos:R:3:tags:I:1 spacegroup="P 1" unit_cell=conventional n_minim_iter=3 stress="-0.10249097356200686 -6.173391408747655e-16 -2.594347454666541e-16 -6.173391408747655e-16 -0.1024909735620094 4.155957516420738e-16 -2.594347454666541e-16 4.155957516420738e-16 -0.10109922390784408" pbc="T T T"
Ti       2.77195562       3.23272660       1.05112229        0
Ti      -1.41364139       4.01694968       3.15336687        1
Ti       1.41364140       4.01694968       3.15336687        2
Ti       1.35831422       0.78422789       1.05112229        3
Ti       4.18559701       0.78422789       1.05112229        4
Ti       0.00000000       1.56845096       3.15336687        5
Al       0.00000000       3.20078344       1.05112229        6
Al       2.77195562       1.60039412       3.15336687        7
