8
Lattice="6.094594929082384 -4.4252237947112034e-16 1.1933966194750206e-48 -3.0472974645411917 5.278074034361164 -2.467925868110897e-48 -9.154076000776694e-49 1.6573937000207293e-48 4.67492401640209" Properties=species:S:1:pos:R:3:tags:I:1 spacegroup="P 1" unit_cell=conventional n_minim_iter=1 energy=-9783.585733222306 free_energy=-9783.585733222306 pbc="T T T"
Ti       3.04729747       3.56873223       1.16873100        0
Ti      -1.56695946       4.42340577       3.50619301        1
Ti       1.56695947       4.42340577       3.50619301        2
Ti       1.48033800       0.85467882       1.16873100        3
Ti       4.61425694       0.85467882       1.16873100        4
Ti       0.00000001       1.70935237       3.50619301        5
Al       0.00000001       3.51872131       1.16873100        6
Al       3.04729747       1.75936329       3.50619301        7
8
Lattice="6.077384054852084 -4.290660355677786e-16 1.1898916094137426e-48 -3.0386920274260416 5.263168980056383 -2.4612263700542588e-48 -9.207013468835726e-49 1.6665009666408516e-48 4.701439851969629" Properties=species:S:1:pos:R:3:tags:I:1 spacegroup="P 1" unit_cell=conventional n_minim_iter=2 stress="0.05384778677326721 -1.9624979522276174e-16 6.916829277435536e-17 -1.9624979522276174e-16 0.053847786773266945 -1.4068681625885282e-16 6.916829277435536e-17 -1.4068681625885282e-16 0.05453096124743364" pbc="T T T"
Ti       3.03869203       3.55966958       1.17535996        0
Ti      -1.56341370       4.41142191       3.52607989        1
Ti       1.56341372       4.41142191       3.52607989        2
Ti       1.47527832       0.85175760       1.17535996        3
Ti       4.60210574       0.85175760       1.17535996        4
Ti       0.00000001       1.70350993       3.52607989        5
Al       0.00000001       3.50878459       1.17535996        6
Al       3.03869203       1.75439493       3.52607989        7
8
Lattice="6.080329424462438 -4.2190347633725204e-16 1.1894149460670166e-48 -3.0401647122312188 5.265719744962484 -2.4538844456835093e-48 -9.194594413085026e-49 1.665900305335271e-48 4.6968861104950514" Properties=species:S:1:pos:R:3:tags:I:1 spacegroup="P 1" unit_cell=conventional n_minim_iter=3 stress="0.052715262920901756 -3.175956086881495e-16 8.912897292084973e-18 -3.175956086881495e-16 0.052715262920901826 -5.326555097703667e-17 8.912897292084973e-18 -5.326555097703667e-17 0.05274757222209675" pbc="T T T"
Ti       3.04016472       3.56887489       1.17422153        0
Ti      -1.57064939       4.41729995       3.52266458        1
Ti       1.57064940       4.41729995       3.52266458        2
Ti       1.46951532       0.84843033       1.17422153        3
Ti       4.61081412       0.84843033       1.17422153        4
Ti       0.00000001       1.69685539       3.52266458        5
Al       0.00000001       3.51048510       1.17422153        6
Al       3.04016472       1.75524519       3.52266458        7
