8
Lattice="6.270317276187629 -4.584728587636977e-16 -2.159049875524647e-48 -3.135158638093814 5.430254050966933 -3.79981864603326e-48 1.6975835396937904e-48 4.429954334007086e-48 4.930125754564673" Properties=species:S:1:pos:R:3:tags:I:1 spacegroup="P 1" unit_cell=conventional n_minim_iter=1 energy=-9781.915225288316 free_energy=-9781.915225288316 pbc="T T T"
Ti       3.13515864       3.73837020       1.23253144        0
Ti      -1.66993953       4.58431484       3.69759431        1
Ti       1.66993954       4.58431484       3.69759431        2
Ti       1.46521911       0.84595008       1.23253144        3
Ti       4.80509818       0.84595008       1.23253144        4
Ti       0.00000001       1.69189472       3.69759431        5
Al       0.00000001       3.62017480       1.23253144        6
Al       3.13515864       1.81009012       3.69759431        7
8
Lattice="6.2546805986128735 -4.4381439294612925e-16 -1.7823328393607937e-48 -3.1273402993064363 5.416712290956407 -3.787850314482688e-48 1.8525521717384156e-48 5.630984396098324e-48 4.954807158817466" Properties=species:S:1:pos:R:3:tags:I:1 spacegroup="P 1" unit_cell=conventional n_minim_iter=2 stress="0.1385042205089963 1.2319567080061498e-16 -4.2993095301232053e-17 1.2319567080061498e-16 0.13850422050899605 1.1810663092276474e-16 -4.2993095301232053e-17 1.1810663092276474e-16 0.14334773048296942" pbc="T T T"
Ti       3.12734030       3.73218938       1.23870179        0
Ti      -1.66849596       4.57445355       3.71610537        1
Ti       1.66849597       4.57445355       3.71610537        2
Ti       1.45884434       0.84226959       1.23870179        3
Ti       4.79583627       0.84226959       1.23870179        4
Ti       0.00000001       1.68453376       3.71610537        5
Al       0.00000001       3.61114695       1.23870179        6
Al       3.12734030       1.80557618       3.71610537        7
8
Lattice="6.281837742071226 -4.380679661166238e-16 1.7162794683544025e-48 -3.1409188710356126 5.4402310670855565 -1.230194596553507e-48 -1.1481723635671468e-48 -1.8571981106652136e-48 4.912059301198439" Properties=species:S:1:pos:R:3:tags:I:1 spacegroup="P 1" unit_cell=conventional n_minim_iter=3 stress="0.13416264424004856 7.267564769860706e-17 3.621709276809889e-17 7.267564769860706e-17 0.13416264424004798 4.5989614241606627e-17 3.621709276809889e-17 4.5989614241606627e-17 0.13100941545792003" pbc="T T T"
Ti       3.14091888       3.76794966       1.22801482        0
Ti      -1.69267597       4.60409309       3.68404447        1
Ti       1.69267598       4.60409309       3.68404447        2
Ti       1.44824290       0.83614887       1.22801482        3
Ti       4.83359485       0.83614887       1.22801482        4
Ti       0.00000001       1.67229230       3.68404447        5
Al       0.00000001       3.62682616       1.22801482        6
Al       3.14091888       1.81341580       3.68404447        7
8
Lattice="6.275682162490442 -4.2895164554180525e-16 1.527546836736054e-48 -3.1378410812452207 5.434900178793581 -1.5135727009403234e-48 -8.615718267715661e-49 -1.1896105914798428e-48 4.921700133894043" Properties=species:S:1:pos:R:3:tags:I:1 spacegroup="P 1" unit_cell=conventional n_minim_iter=4 stress="0.13258165757658325 2.8324698414227225e-17 -8.856611343906983e-17 2.8324698414227225e-17 0.13258165757658266 -8.109016781162175e-17 -8.856611343906983e-17 -8.109016781162175e-17 0.1325501655474028" pbc="T T T"
Ti       3.13784109       3.76501876       1.23042503        0
Ti      -1.69167664       4.59996219       3.69127510        1
Ti       1.69167665       4.59996219       3.69127510        2
Ti       1.44616445       0.83494887       1.23042503        3
Ti       4.82951773       0.83494887       1.23042503        4
Ti       0.00000001       1.66989230       3.69127510        5
Al       0.00000001       3.62327223       1.23042503        6
Al       3.13784109       1.81163883       3.69127510        7
