8
Lattice="5.470411095221705 -3.0680297799686945e-16 1.1260627447283272e-48 -2.7352055476108514 4.73751497760625 -2.8308633557358405e-48 -9.358030888069296e-49 2.1762166476435173e-48 4.546129977141932" Properties=species:S:1:pos:R:3:tags:I:1 spacegroup="P 1" unit_cell=conventional n_minim_iter=1 energy=-9783.8983851579 free_energy=-9783.8983851579 pbc="T T T"
Ti       2.73520555       3.18316683       1.13653249        0
Ti      -1.38909646       3.96034328       3.40959748        1
Ti       1.38909646       3.96034328       3.40959748        2
Ti       1.34610909       0.77718119       1.13653249        3
Ti       4.12430201       0.77718119       1.13653249        4
Ti       0.00000000       1.55435763       3.40959748        5
Al       0.00000000       3.15834806       1.13653249        6
Al       2.73520555       1.57917640       3.40959748        7
8
Lattice="5.477282509739396 -3.0409848113196953e-16 1.073111860830453e-48 -2.7386412548696972 4.743465797138503 -2.907510500847958e-48 -9.165943649596297e-49 2.4715841166529642e-48 4.534730620343667" Properties=species:S:1:pos:R:3:tags:I:1 spacegroup="P 1" unit_cell=conventional n_minim_iter=2 stress="-0.05779243498634576 -9.392061094295536e-17 -3.647619286370356e-17 -9.392061094295536e-17 -0.05779243498634618 6.597369870919803e-17 -3.647619286370356e-17 6.597369870919803e-17 -0.058904177536210835" pbc="T T T"
Ti       2.73864126       3.18658138       1.13368265        0
Ti      -1.39033568       3.96502596       3.40104796        1
Ti       1.39033569       3.96502596       3.40104796        2
Ti       1.34830557       0.77844933       1.13368265        3
Ti       4.12897694       0.77844933       1.13368265        4
Ti       0.00000000       1.55689392       3.40104796        5
Al       0.00000000       3.16231528       1.13368265        6
Al       2.73864126       1.58116001       3.40104796        7
8
Lattice="5.476784857528952 -2.9961113989336607e-16 9.359700411273474e-49 -2.738392428764475 4.743034817682009 -1.402131889424255e-48 -1.3882448045821482e-48 4.510574523325677e-48 4.535554761260257" Properties=species:S:1:pos:R:3:tags:I:1 spacegroup="P 1" unit_cell=conventional n_minim_iter=3 stress="-0.05712134540898938 1.1606074841370534e-16 -1.2093755673828175e-16 1.1606074841370534e-16 -0.05712134540898996 -1.719925770860674e-16 -1.2093755673828175e-16 -1.719925770860674e-16 -0.05708967091840548" pbc="T T T"
Ti       2.73839243       3.18034698       1.13388869        0
Ti      -1.38506095       3.96169327       3.40166607        1
Ti       1.38506096       3.96169327       3.40166607        2
Ti       1.35333148       0.78135104       1.13388869        3
Ti       4.12345339       0.78135104       1.13388869        4
Ti       0.00000000       1.56269733       3.40166607        5
Al       0.00000000       3.16202796       1.13388869        6
Al       2.73839243       1.58101635       3.40166607        7
