8
Lattice="5.966419103171388 -5.166880499389294e-16 -2.7236543097306663e-48 -2.9832095515856936 5.167070512971189 5.344881659970796e-48 2.1118677969520037e-48 -3.5661561878792914e-48 4.626243617661198" Properties=species:S:1:pos:R:3:tags:I:1 spacegroup="P 1" unit_cell=conventional n_minim_iter=1 energy=-9783.442454245287 free_energy=-9783.442454245287 pbc="T T T"
Ti       2.98320956       3.48485640       1.15656090        0
Ti      -1.52636491       4.32596604       3.46968271        1
Ti       1.52636492       4.32596604       3.46968271        2
Ti       1.45684464       0.84111482       1.15656090        3
Ti       4.50957447       0.84111482       1.15656090        4
Ti       0.00000001       1.68222446       3.46968271        5
Al       0.00000001       3.44471885       1.15656090        6
Al       2.98320956       1.72236201       3.46968271        7
8
Lattice="5.99605822537145 -5.070525842308723e-16 -2.710834279201243e-48 -2.9980291126857246 5.192738745742314 5.4345421659479623e-48 2.1237434637333315e-48 -3.599734814360595e-48 4.58062067632404" Properties=species:S:1:pos:R:3:tags:I:1 spacegroup="P 1" unit_cell=conventional n_minim_iter=2 stress="0.046067073490526494 -2.271784402692809e-16 5.1251100949863114e-17 -2.271784402692809e-16 0.04606707349052709 4.5097030106796477e-17 5.1251100949863114e-17 4.5097030106796477e-17 0.04639006907450576" pbc="T T T"
Ti       2.99802912       3.50216236       1.14515517        0
Ti      -1.53394251       4.34745315       3.43546550        1
Ti       1.53394252       4.34745315       3.43546550        2
Ti       1.46408660       0.84529599       1.14515517        3
Ti       4.53197164       0.84529599       1.14515517        4
Ti       0.00000001       1.69058678       3.43546550        5
Al       0.00000001       3.46183103       1.14515517        6
Al       2.99802912       1.73091811       3.43546550        7
8
Lattice="5.998558511252927 -4.546223596615276e-16 -2.9115365049376086e-48 -2.999279255626463 5.194904056832398 5.037469101472731e-48 1.2793460682286623e-48 -7.177467842706536e-48 4.576802934336564" Properties=species:S:1:pos:R:3:tags:I:1 spacegroup="P 1" unit_cell=conventional n_minim_iter=3 stress="0.04564194529657161 -1.800630024743234e-16 -4.265528338410863e-17 -1.800630024743234e-16 0.045641945296571486 1.0850317252945977e-16 -4.265528338410863e-17 1.0850317252945977e-16 0.0442340118519858" pbc="T T T"
Ti       2.99927926       3.50066674       1.14420073        0
Ti      -1.53202219       4.34778800       3.43260220        1
Ti       1.53202220       4.34778800       3.43260220        2
Ti       1.46725706       0.84712646       1.14420073        3
Ti       4.53130146       0.84712646       1.14420073        4
Ti       0.00000001       1.69424771       3.43260220        5
Al       0.00000001       3.46327457       1.14420073        6
Al       2.99927926       1.73163988       3.43260220        7
8
Lattice="5.997702725351774 -4.3418512813768133e-16 -2.5427191401345598e-48 -2.9988513626758864 5.194162924501798 5.822506754427284e-48 1.011488366919092e-48 -6.982473937710469e-48 4.578109115398157" Properties=species:S:1:pos:R:3:tags:I:1 spacegroup="P 1" unit_cell=conventional n_minim_iter=4 stress="0.04561164697263968 -1.9131754899066196e-16 5.93678889805982e-17 -1.9131754899066196e-16 0.04561164697263993 -6.081741459282782e-18 5.93678889805982e-17 -6.081741459282782e-18 0.04527873560281242" pbc="T T T"
Ti       2.99885137       3.49847343       1.14452728        0
Ti      -1.53033668       4.34632078       3.43358183        1
Ti       1.53033669       4.34632078       3.43358183        2
Ti       1.46851469       0.84785254       1.14452728        3
Ti       4.52918805       0.84785254       1.14452728        4
Ti       0.00000001       1.69569989       3.43358183        5
Al       0.00000001       3.46278048       1.14452728        6
Al       2.99885137       1.73139284       3.43358183        7
