8
Lattice="5.890546093401757 -4.299691573205947e-16 -8.08356777252808e-52 -2.945273046700878 5.101362559049105 -1.5580622539782824e-48 6.37157943484029e-52 1.4184395721253032e-48 4.643009547869485" Properties=species:S:1:pos:R:3:tags:I:1 spacegroup="P 1" unit_cell=conventional n_minim_iter=1 energy=-9783.573987989674 free_energy=-9783.573987989674 pbc="T T T"
Ti       2.94527305       3.44428211       1.16075238        0
Ti      -1.51019485       4.27282489       3.48225716        1
Ti       1.51019486       4.27282489       3.48225716        2
Ti       1.43507819       0.82854788       1.16075238        3
Ti       4.45546791       0.82854788       1.16075238        4
Ti       0.00000001       1.65709066       3.48225716        5
Al       0.00000001       3.40091348       1.16075238        6
Al       2.94527305       1.70045929       3.48225716        7
8
Lattice="5.92255592623181 -5.169596432927666e-16 -1.331470294233353e-49 -2.9612779631159047 5.129083887450824 -1.347558513231944e-48 -1.5172087207469643e-49 2.2504365495055898e-48 4.592956722601037" Properties=species:S:1:pos:R:3:tags:I:1 spacegroup="P 1" unit_cell=conventional n_minim_iter=2 stress="0.041167496702591455 -2.728649235106912e-16 1.1010981665785305e-17 -2.728649235106912e-16 0.04116749670259115 9.853583685305593e-17 1.1010981665785305e-17 9.853583685305593e-17 0.040978728162795644" pbc="T T T"
Ti       2.96127797       3.46301375       1.14823918        0
Ti      -1.51841445       4.29605139       3.44471754        1
Ti       1.51841446       4.29605139       3.44471754        2
Ti       1.44286351       0.83304277       1.14823918        3
Ti       4.47969243       0.83304277       1.14823918        4
Ti       0.00000001       1.66608040       3.44471754        5
Al       0.00000001       3.41939439       1.14823918        6
Al       2.96127797       1.70969976       3.44471754        7
8
Lattice="5.921963807400874 -5.210536881061987e-16 -2.889875472451564e-48 -2.9609819037004366 5.128571097501176 4.931401700198652e-48 -2.866575091149399e-48 3.8940941589689645e-48 4.593875239570941" Properties=species:S:1:pos:R:3:tags:I:1 spacegroup="P 1" unit_cell=conventional n_minim_iter=3 stress="0.04111586864602703 -2.1699980960142375e-16 5.295925222635733e-17 -2.1699980960142375e-16 0.041115868646027155 3.4461973802981845e-17 5.295925222635733e-17 3.4461973802981845e-17 0.04188402953504905" pbc="T T T"
Ti       2.96098191       3.46012913       1.14846881        0
Ti      -1.51606432       4.29435268       3.44540643        1
Ti       1.51606433       4.29435268       3.44540643        2
Ti       1.44491758       0.83422869       1.14846881        3
Ti       4.47704623       0.83422869       1.14846881        4
Ti       0.00000001       1.66845224       3.44540643        5
Al       0.00000001       3.41905253       1.14846881        6
Al       2.96098191       1.70952883       3.44540643        7
8
Lattice="5.922867046103572 -5.129164698591395e-16 -2.7037729125510178e-48 -2.9614335230517854 5.129353325163391 5.305866534306552e-48 -2.566128108248955e-48 4.14235476704786e-48 4.592474212166551" Properties=species:S:1:pos:R:3:tags:I:1 spacegroup="P 1" unit_cell=conventional n_minim_iter=4 stress="0.04095153452009772 -1.8626273735521688e-16 8.91676762061812e-17 -1.8626273735521688e-16 0.040951534520097775 -3.370365528004021e-17 8.91676762061812e-17 -3.370365528004021e-17 0.04113463056418868" pbc="T T T"
Ti       2.96143353       3.45941858       1.14811855        0
Ti      -1.51522316       4.29438852       3.44435566        1
Ti       1.51522317       4.29438852       3.44435566        2
Ti       1.44621036       0.83497507       1.14811855        3
Ti       4.47665669       0.83497507       1.14811855        4
Ti       0.00000001       1.66994501       3.44435566        5
Al       0.00000001       3.41957402       1.14811855        6
Al       2.96143353       1.70978958       3.44435566        7
