8
Lattice="5.616405097957772 -3.153899824271371e-16 5.371140833590347e-49 -2.808202548978886 4.86394949277586 5.303946760112981e-49 4.612210508037859e-49 7.654731417976777e-49 4.653344302341529" Properties=species:S:1:pos:R:3:tags:I:1 spacegroup="P 1" unit_cell=conventional n_minim_iter=8 pbc="T T T"
Ti       2.80820255       3.27443436       1.16333607        0
Ti      -1.43163785       4.06919436       3.49000822        1
Ti       1.43163786       4.06919436       3.49000822        2
Ti       1.37656470       0.79476487       1.16333607        3
Ti       4.23984041       0.79476487       1.16333607        4
Ti       0.00000000       1.58952487       3.49000822        5
Al       0.00000000       3.24263786       1.16333607        6
Al       2.80820255       1.62132137       3.49000822        7
