4
Lattice="5.072508436283771 -0.0020638728098079937 8.947832456324545e-13 2.1752550634784624 4.582424195177954 2.6773573339706056e-12 -3.6238817498815954 -2.2901801611854307 2.7116234967135076" Properties=species:S:1:pos:R:3:tags:I:1 spacegroup="P 1" unit_cell=conventional n_minim_iter=1 energy=-1924.4671682218789 free_energy=-1924.4671682218789 pbc="T T T"
Ti       0.00000000       0.00000000       0.00000000        0
Al       3.62388175       2.29018016       0.00000000        1
Al       2.53625422      -0.00103194       1.35581175        2
Al       1.08762753       2.29121210       1.35581175        3
