4
Lattice="5.266300465076672 -0.002142721786410151 9.32868655643787e-13 2.258359329777595 4.757492860460214 2.785386794533323e-12 -3.762329897427633 -2.377675069338313 2.8152193852864564" Properties=species:S:1:pos:R:3:tags:I:1 spacegroup="P 1" unit_cell=conventional n_minim_iter=1 energy=-1923.8297062551958 free_energy=-1923.8297062551958 pbc="T T T"
Ti       0.00000000       0.00000000       0.00000000        0
Al       3.76232990       2.37767507       0.00000000        1
Al       2.63315023      -0.00107136       1.40760969        2
Al       1.12917966       2.37874643       1.40760969        3
