4
Lattice="5.339964557618986 -0.002172693805103346 9.471038930369264e-13 2.289948866258803 4.824039840957507 2.822492626233741e-12 -3.8149567119394012 -2.4109335735776316 2.8545981831161478" Properties=species:S:1:pos:R:3:tags:I:1 spacegroup="P 1" unit_cell=conventional n_minim_iter=1 energy=-1923.4290210128393 free_energy=-1923.4290210128393 pbc="T T T"
Ti       0.00000000       0.00000000       0.00000000        0
Al       3.81495671       2.41093357       0.00000000        1
Al       2.66998228      -0.00108635       1.42729909        2
Al       1.14497443       2.41201992       1.42729909        3
