4
Lattice="4.990679474865311 -0.0020305787166269578 8.764582783144177e-13 2.1401641681353487 4.5085012007896115 2.631441017733625e-12 -3.5654218215008004 -2.2532353110378276 2.6678799845476586" Properties=species:S:1:pos:R:3:tags:I:1 spacegroup="P 1" unit_cell=conventional n_minim_iter=2 pbc="T T T"
Ti       0.00000000       0.00000000       0.00000000        0
Al       3.56542182       2.25323531       0.00000000        1
Al       2.49533974      -0.00101529       1.33393999        2
Al       1.07008208       2.25425060       1.33393999        3
