2
Lattice="3.084522159066582 0.0 0.0 0.0 3.084522159066582 0.0 0.0 0.0 3.084522159066582" Properties=species:S:1:pos:R:3 Minim_Constant_Volume=F n_minim_iter=1 stress="-0.0669394007680889 4.5988174350018616e-17 2.7309172943070178e-17 4.5988174350018616e-17 -0.066939400768089 -5.3672573663003727e-17 2.7309172943070178e-17 -5.3672573663003727e-17 -0.06693940076809031" pbc="T T T"
Ti       0.00000000       0.00000000       0.00000000
Ti       1.54226108       1.54226108       1.54226108
