4
Lattice="4.6097190581707945 0.03010351252473402 8.225541921599987e-13 2.005679886123544 4.15062214747727 2.42771464116305e-12 -3.307699472147597 -2.090362830002222 2.4371958184825826" Properties=species:S:1:pos:R:3:tags:I:1 spacegroup="P 1" unit_cell=conventional n_minim_iter=1 energy=-1922.1080076929027 free_energy=-1922.1080076929027 pbc="T T T"
Ti       0.00000000       0.00000000       0.00000000        0
Al       3.30769947       2.09036283       0.00000000        1
Al       2.30485953       0.01505176       1.21859791        2
Al       1.00283994       2.07531107       1.21859791        3
4
Lattice="4.641927441706329 0.06773979549911703 8.470189882033178e-13 2.0534971677244127 4.1635595871931885 2.4425579945082672e-12 -3.347712304715795 -2.1156496913473672 2.422586997884034" Properties=species:S:1:pos:R:3:tags:I:1 spacegroup="P 1" unit_cell=conventional n_minim_iter=2 stress="-0.3494386628113703 -0.0016729009118215462 -2.273853900033385e-15 -0.0016729009118215462 -0.34784875813449656 -9.153444962427496e-16 -2.273853900033385e-15 -9.153444962427496e-16 -0.3467915369710271" pbc="T T T"
Ti       0.00000000       0.00000000       0.00000000        0
Al       3.34771230       2.11564969       0.00000000        1
Al       2.32096372       0.03386990       1.21129350        2
Al       1.02674858       2.08177979       1.21129350        3
