2
Lattice="3.112063992793871 0.0 0.0 0.0 3.112063992793871 0.0 0.0 0.0 3.112063992793871" Properties=species:S:1:pos:R:3 Minim_Constant_Volume=F n_minim_iter=1 stress="-0.04119472896029421 3.746844660969074e-17 6.935403711932004e-17 3.746844660969074e-17 -0.04119472896029421 2.5076088836036308e-17 6.935403711932004e-17 2.5076088836036308e-17 -0.04119472896029414" pbc="T T T"
Ti       0.00000000       0.00000000       0.00000000
Ti       1.55603200       1.55603200       1.55603200
