8
Lattice="5.648172977490992 -1.5708859897017136e-16 2.25320230948333e-48 -2.824086488745496 4.891461283475991 2.3546942460737075e-48 -1.8489303164970827e-48 -3.2986071839532945e-48 4.634771678934297" Properties=species:S:1:pos:R:3:tags:I:1 spacegroup="P 1" unit_cell=conventional n_minim_iter=1 energy=-9783.812987055348 free_energy=-9783.812987055348 pbc="T T T"
Ti       2.82408649       3.30189017       1.15869292        0
Ti      -1.44747328       4.09667817       3.47607876        1
Ti       1.44747329       4.09667817       3.47607876        2
Ti       1.37661321       0.79479290       1.15869292        3
Ti       4.27155978       0.79479290       1.15869292        4
Ti       0.00000000       1.58958091       3.47607876        5
Al       0.00000000       3.26097908       1.15869292        6
Al       2.82408649       1.63049199       3.47607876        7
8
Lattice="5.667903153937 -1.7488594445233623e-16 2.2824784534039872e-48 -2.8339515769685 4.908548117499382 2.3595637403468873e-48 -1.8362622291602775e-48 -3.267465894801143e-48 4.602560224683686" Properties=species:S:1:pos:R:3:tags:I:1 spacegroup="P 1" unit_cell=conventional n_minim_iter=2 stress="0.016311309486417215 4.081191216676334e-17 2.3341498088325264e-17 4.081191216676334e-17 0.016311309486416826 3.024463594839789e-17 2.3341498088325264e-17 3.024463594839789e-17 0.01626840349910872" pbc="T T T"
Ti       2.83395158       3.31364796       1.15064005        0
Ti      -1.45272326       4.11110049       3.45192017        1
Ti       1.45272327       4.11110049       3.45192017        2
Ti       1.38122831       0.79745745       1.15064005        3
Ti       4.28667485       0.79745745       1.15064005        4
Ti       0.00000000       1.59490999       3.45192017        5
Al       0.00000000       3.27237032       1.15064005        6
Al       2.83395158       1.63618762       3.45192017        7
8
Lattice="5.667671969743499 -1.4220927881011586e-16 1.2989772945093385e-48 -2.8338359848717496 4.908347906114859 2.2626666645300277e-48 -8.66647336093309e-49 -4.682099465886249e-49 4.602935708967292" Properties=species:S:1:pos:R:3:tags:I:1 spacegroup="P 1" unit_cell=conventional n_minim_iter=3 stress="0.016252641694867488 -7.162344458356112e-17 7.801659670174871e-17 -7.162344458356112e-17 0.016252641694867516 -4.6740821965262546e-17 7.801659670174871e-17 -4.6740821965262546e-17 0.01623188560772581" pbc="T T T"
Ti       2.83383599       3.31539399       1.15073392        0
Ti      -1.45429317       4.11187340       3.45220178        1
Ti       1.45429318       4.11187340       3.45220178        2
Ti       1.37954282       0.79648433       1.15073392        3
Ti       4.28812916       0.79648433       1.15073392        4
Ti       0.00000000       1.59296374       3.45220178        5
Al       0.00000000       3.27223685       1.15073392        6
Al       2.83383599       1.63612088       3.45220178        7
