2
Lattice="2.79022572245841 0.0 0.0 0.0 2.79022572245841 0.0 0.0 0.0 4.023460942116187" Properties=species:S:1:pos:R:3:tags:I:1 spacegroup="P 1" unit_cell=conventional n_minim_iter=1 energy=-1704.2873738486794 free_energy=-1704.2873738486794 pbc="T T T"
Ti       1.39511286       1.39511286       2.01173048        0
Al       0.00000000       0.00000000       0.00000000        1
