2
Lattice="2.767353991115082 0.0 0.0 0.0 2.767353991115082 0.0 0.0 0.0 3.990480270696752" Properties=species:S:1:pos:R:3:tags:I:1 spacegroup="P 1" unit_cell=conventional n_minim_iter=2 pbc="T T T"
Ti       1.38367700       1.38367700       1.99524014        0
Al       0.00000000       0.00000000       0.00000000        1
