2
Lattice="3.1918950660449696 0.0 0.0 0.0 3.1918950660449705 0.0 0.0 0.0 3.1918950660449696" Properties=species:S:1:pos:R:3 Minim_Constant_Volume=F n_minim_iter=1 stress="0.0177825905142993 2.81606774353439e-17 2.9538163917848473e-17 2.81606774353439e-17 0.017782590514299666 1.4402842239534948e-17 2.9538163917848473e-17 1.4402842239534948e-17 0.017782590514299347" pbc="T T T"
Ti       0.00000000       0.00000000       0.00000000
Ti       1.59594753       1.59594753       1.59594753
