2
Lattice="3.056479496348784 0.0 0.0 0.0 3.056479496348784 0.0 0.0 0.0 3.056479496348784" Properties=species:S:1:pos:R:3 Minim_Constant_Volume=F n_minim_iter=1 stress="-0.06813368548814712 -2.813672363831473e-17 -2.6126957664149392e-17 -2.813672363831473e-17 -0.0681336854881469 -1.1940374317099948e-17 -2.6126957664149392e-17 -1.1940374317099948e-17 -0.0681336854881481" pbc="T T T"
Ti       0.00000000       0.00000000       0.00000000
Ti       1.52823975       1.52823975       1.52823975
