2
Lattice="3.112063992793871 0.0 0.0 0.0 3.112063992793871 0.0 0.0 0.0 3.112063992793871" Properties=species:S:1:pos:R:3 Minim_Constant_Volume=F n_minim_iter=1 stress="-0.041338411016645656 -7.643332887506806e-17 -2.831716702299208e-17 -7.643332887506806e-17 -0.04133841101664548 -1.9338553088872644e-17 -2.831716702299208e-17 -1.9338553088872644e-17 -0.04133841101664542" pbc="T T T"
Ti       0.00000000       0.00000000       0.00000000
Ti       1.55603200       1.55603200       1.55603200
