4
Lattice="4.878847952424104 0.00960199336671982 8.68547599285535e-13 2.102672761547838 4.402501198068465 2.5769587895787255e-12 -3.4907603569864314 -2.2060515957188933 2.598302913108396" Properties=species:S:1:pos:R:3:tags:I:1 spacegroup="P 1" unit_cell=conventional n_minim_iter=1 energy=-1924.5041783699378 free_energy=-1924.5041783699378 pbc="T T T"
Ti       0.00000000       0.00000000       0.00000000        0
Al       3.49076036       2.20605160       0.00000000        1
Al       2.43942398       0.00480100       1.29915146        2
Al       1.05133638       2.20125060       1.29915146        3
