4
Lattice="5.18058788640771 -0.022029110214883484 8.998336894340211e-13 2.2036099382778964 4.688611667691625 2.7308135016458295e-12 -3.6920989123432935 -2.333291278739764 2.786240040004018" Properties=species:S:1:pos:R:3:tags:I:1 spacegroup="P 1" unit_cell=conventional n_minim_iter=1 energy=-1924.3039874375615 free_energy=-1924.3039874375615 pbc="T T T"
Ti       0.00000000       0.00000000       0.00000000        0
Al       3.69209891       2.33329128       0.00000000        1
Al       2.59029394      -0.01101456       1.39312002        2
Al       1.10180497       2.34430583       1.39312002        3
