2
Lattice="2.973257495462617 -9.455725527589677e-16 5.066329748069073e-41 -1.4866287477313078 2.574916523063122 2.5685101481505116e-25 -2.6377934252831327e-40 -4.697744620465244e-25 4.70946172942978" Properties=species:S:1:pos:R:3 n_minim_iter=1 energy=-3187.1657533329767 free_energy=-3187.1657533329767 pbc="T T T"
Ti       0.00000000       0.00000000       0.00000000
Ti       0.00000000       1.71661102       2.35473086
2
Lattice="3.0204148210000388 -9.42847071841953e-16 2.1538638413541257e-41 -1.5102074105000187 2.615755964953061 2.6092479817849514e-25 -3.0669207782320895e-40 -4.552199254990204e-25 4.563553344879773" Properties=species:S:1:pos:R:3 n_minim_iter=2 stress="0.06244605567469222 -3.609624913906414e-16 -5.112016489479085e-18 -3.609624913906414e-16 0.06244605567469284 -4.457678378825762e-17 -5.112016489479085e-18 -4.457678378825762e-17 0.06148842583406211" pbc="T T T"
Ti       0.00000000      -0.00000000      -0.00000000
Ti       0.00000000       1.74383731       2.28177667
