2
Lattice="3.058105748109085 -9.813857956059473e-16 2.3249626885124813e-41 -1.5290528740545415 2.648397265321683 2.641808070818788e-25 -2.1929540130140986e-40 -4.638043256074687e-25 4.649611457968191" Properties=species:S:1:pos:R:3 n_minim_iter=1 energy=-3187.0614054856146 free_energy=-3187.0614054856146 pbc="T T T"
Ti       0.00000000       0.00000000       0.00000000
Ti       0.00000000       1.76559818       2.32480573
