2
Lattice="3.079642413653689 -9.882971908914957e-16 2.341336204653034e-41 -1.5398212068268433 2.6670485647961195 2.660412965986145e-25 -1.854872248655991e-40 -4.6707066086906835e-25 4.682356279478872" Properties=species:S:1:pos:R:3 n_minim_iter=1 energy=-3186.992195988761 free_energy=-3186.992195988761 pbc="T T T"
Ti       0.00000000       0.00000000       0.00000000
Ti       0.00000000       1.77803238       2.34117814
