2
Lattice="2.721239342072696 0.0 0.0 0.0 2.721239342072696 0.0 0.0 0.0 3.9216566151414693" Properties=species:S:1:pos:R:3:tags:I:1 spacegroup="P 1" unit_cell=conventional n_minim_iter=1 energy=-1704.2593614435752 free_energy=-1704.2593614435752 pbc="T T T"
Ti       1.36061967       1.36061967       1.96082831        0
Al       0.00000000       0.00000000       0.00000000        1
