4
Lattice="3.897390320749315 0.0 0.0 0.0 3.897390320749315 0.0 0.0 0.0 3.897390320749315" Properties=species:S:1:pos:R:3 n_minim_iter=1 stress="-0.04120057189620715 -3.5092040453635705e-17 5.975975792922046e-18 -3.5092040453635705e-17 -0.041200571896207204 3.756836780767962e-18 5.975975792922046e-18 3.756836780767962e-18 -0.041200571896207266" pbc="T T T"
Al       0.00000000       0.00000000       0.00000000
Al       1.94869516       1.94869516       0.00000000
Al       1.94869516       0.00000000       1.94869516
Al       0.00000000       1.94869516       1.94869516
