4
Lattice="3.789072948743637 0.0 0.0 0.0 3.789072948743637 0.0 0.0 0.0 3.789072948743637" Properties=species:S:1:pos:R:3 n_minim_iter=1 stress="-0.08328255984333972 -2.6561994373179406e-17 -1.3660574498116307e-17 -2.6561994373179406e-17 -0.0832825598433396 6.071532165918831e-18 -1.3660574498116307e-17 6.071532165918831e-18 -0.08328255984333972" pbc="T T T"
Al       0.00000000       0.00000000       0.00000000
Al       1.89453647       1.89453647       0.00000000
Al       1.89453647       0.00000000       1.89453647
Al       0.00000000       1.89453647       1.89453647
