4
Lattice="3.7132710668902233 0.0 0.0 0.0 3.7132710668902233 0.0 0.0 0.0 3.7132710668902233" Properties=species:S:1:pos:R:3 n_minim_iter=1 stress="-0.1734450131434097 -6.978358457730149e-17 2.910695394397536e-18 -6.978358457730149e-17 -0.17344501314340965 1.7004186416130076e-17 2.910695394397536e-18 1.7004186416130076e-17 -0.17344501314340924" pbc="T T T"
Al       0.00000000       0.00000000       0.00000000
Al       1.85663553       1.85663553       0.00000000
Al       1.85663553       0.00000000       1.85663553
Al       0.00000000       1.85663553       1.85663553
