4
Lattice="3.789072948743637 0.0 0.0 0.0 3.789072948743637 0.0 0.0 0.0 3.789072948743637" Properties=species:S:1:pos:R:3 n_minim_iter=1 stress="-0.08270875903020312 2.4881884379333697e-17 4.64902315694082e-18 2.4881884379333697e-17 -0.08270875903020337 -1.0276687734916184e-17 4.64902315694082e-18 -1.0276687734916184e-17 -0.08270875903020344" pbc="T T T"
Al       0.00000000       0.00000000       0.00000000
Al       1.89453647       1.89453647       0.00000000
Al       1.89453647       0.00000000       1.89453647
Al       0.00000000       1.89453647       1.89453647
