4
Lattice="3.8619575384225184 0.0 0.0 0.0 3.8619575384225184 0.0 0.0 0.0 3.8619575384225184" Properties=species:S:1:pos:R:3 n_minim_iter=1 stress="-0.04097259078404434 -1.93777195210404e-18 -3.7222261418430646e-18 -1.93777195210404e-18 -0.04097259078404431 1.1619975436402262e-17 -3.7222261418430646e-18 1.1619975436402262e-17 -0.04097259078404425" pbc="T T T"
Al       0.00000000       0.00000000       0.00000000
Al       1.93097877       1.93097877       0.00000000
Al       1.93097877       0.00000000       1.93097877
Al       0.00000000       1.93097877       1.93097877
