4
Lattice="4.308869380063768 0.0 0.0 0.0 4.308869380063768 0.0 0.0 0.0 4.308869380063768" Properties=species:S:1:pos:R:3 n_minim_iter=1 stress="0.07077641157744943 1.0257644710865072e-17 -4.573301091842384e-20 1.0257644710865072e-17 0.07077641157744947 7.307442804291907e-19 -4.573301091842384e-20 7.307442804291907e-19 0.07077641157744936" pbc="T T T"
Al       0.00000000       0.00000000       0.00000000
Al       2.15443469       2.15443469       0.00000000
Al       2.15443469       0.00000000       2.15443469
Al       0.00000000       2.15443469       2.15443469
