4
Lattice="3.9321902899662327 0.0 0.0 0.0 3.9321902899662327 0.0 0.0 0.0 3.9321902899662327" Properties=species:S:1:pos:R:3 n_minim_iter=1 stress="-0.007748307236595344 5.840015733964204e-18 1.46716966718084e-18 5.840015733964204e-18 -0.0077483072365954015 1.7136381654767496e-17 1.46716966718084e-18 1.7136381654767496e-17 -0.007748307236595344" pbc="T T T"
Al       0.00000000       0.00000000       0.00000000
Al       1.96609514       1.96609514       0.00000000
Al       1.96609514       0.00000000       1.96609514
Al       0.00000000       1.96609514       1.96609514
