4
Lattice="4.190758212686589 0.0 0.0 0.0 4.190758212686589 0.0 0.0 0.0 4.190758212686589" Properties=species:S:1:pos:R:3 n_minim_iter=1 stress="0.04939260416528753 2.23290603845386e-18 8.843673606437218e-21 2.23290603845386e-18 0.04939260416528758 4.145340702272874e-20 8.843673606437218e-21 4.145340702272874e-20 0.04939260416528758" pbc="T T T"
Al       0.00000000       0.00000000       0.00000000
Al       2.09537911       2.09537911       0.00000000
Al       2.09537911       0.00000000       2.09537911
Al       0.00000000       2.09537911       2.09537911
