4
Lattice="3.7515549107338066 0.0 0.0 0.0 3.7515549107338066 0.0 0.0 0.0 3.7515549107338066" Properties=species:S:1:pos:R:3 n_minim_iter=1 stress="-0.1076115557207208 1.4762791509480228e-17 8.377921444073246e-18 1.4762791509480228e-17 -0.10761155572072074 9.295439214103674e-18 8.377921444073246e-18 9.295439214103674e-18 -0.10761155572072034" pbc="T T T"
Al       0.00000000       0.00000000       0.00000000
Al       1.87577746       1.87577746       0.00000000
Al       1.87577746       0.00000000       1.87577746
Al       0.00000000       1.87577746       1.87577746
