8
Lattice="5.483568856900115 4.3032822808472156e-16 -1.272685136089657e-47 -2.7417844284500585 4.748909933476694 6.660760846906161e-48 1.0531602530452123e-47 -2.841117097822044e-49 4.537710546905398" Properties=species:S:1:pos:R:3:tags:I:1 spacegroup="P 1" unit_cell=conventional n_minim_iter=1 energy=-9784.054116688285 free_energy=-9784.054116688285 pbc="T T T"
Ti       2.74178443       3.15436725       1.13442763        0
Ti      -1.36086584       3.95164097       3.40328291        1
Ti       1.36086585       3.95164097       3.40328291        2
Ti       1.38091859       0.79727847       1.13442763        3
Ti       4.10265028       0.79727847       1.13442763        4
Ti       0.00000000       1.59455219       3.40328291        5
Al       0.00000000       3.16594471       1.13442763        6
Al       2.74178443       1.58297473       3.40328291        7
8
Lattice="5.475512341445976 4.1632333694196987e-16 -1.255593583744671e-47 -2.7377561707229887 4.741932786427428 6.98054005485523e-48 1.0585140987399427e-47 -2.9196825796795683e-49 4.551073691091388" Properties=species:S:1:pos:R:3:tags:I:1 spacegroup="P 1" unit_cell=conventional n_minim_iter=2 stress="-0.023661583307422632 -7.179637550640648e-16 7.341533120107646e-16 -7.179637550640648e-16 -0.023661583307419323 3.5692723631386013e-16 7.341533120107646e-16 3.5692723631386013e-16 -0.023361671087960313" pbc="T T T"
Ti       2.73775618       3.14936523       1.13776842        0
Ti      -1.35854809       3.94565138       3.41330527        1
Ti       1.35854810       3.94565138       3.41330527        2
Ti       1.37920808       0.79629090       1.13776842        3
Ti       4.09630427       0.79629090       1.13776842        4
Ti       0.00000000       1.59257705       3.41330527        5
Al       0.00000000       3.16129327       1.13776842        6
Al       2.73775618       1.58064901       3.41330527        7
8
Lattice="5.477097105297673 4.1966425742196975e-16 -3.0254179750215286e-47 -2.7385485526488376 4.743305232181998 1.0193488639537656e-47 1.3239192953831446e-47 -2.3349736590084246e-47 4.54844042258974" Properties=species:S:1:pos:R:3:tags:I:1 spacegroup="P 1" unit_cell=conventional n_minim_iter=3 stress="-0.0230702415239381 -5.859250003899133e-16 6.694406231419281e-16 -5.859250003899133e-16 -0.02307024152393789 -1.097407009003259e-15 6.694406231419281e-16 -1.097407009003259e-15 -0.02285845945723187" pbc="T T T"
Ti       2.73854856       3.14644241       1.13711010        0
Ti      -1.35562066       3.94487619       3.41133031        1
Ti       1.35562067       3.94487619       3.41133031        2
Ti       1.38292789       0.79843853       1.13711010        3
Ti       4.09416922       0.79843853       1.13711010        4
Ti       0.00000000       1.59687232       3.41133031        5
Al       0.00000000       3.16220824       1.13711010        6
Al       2.73854856       1.58110649       3.41133031        7
