4
Lattice="4.097599229036532 0.0 0.0 0.0 4.097599229036532 0.0 0.0 0.0 4.097599229036532" Properties=species:S:1:pos:R:3 n_minim_iter=1 stress="0.027979004104121654 -1.6659296444807878e-17 -1.1275766186909553e-17 -1.6659296444807878e-17 0.027979004104121602 -2.861928906661769e-17 -1.1275766186909553e-17 -2.861928906661769e-17 0.02797900410412176" pbc="T T T"
Al       0.00000000       0.00000000       0.00000000
Al       2.04879961       2.04879961       0.00000000
Al       2.04879961       0.00000000       2.04879961
Al       0.00000000       2.04879961       2.04879961
