4
Lattice="3.825862365544777 0.0 0.0 0.0 3.825862365544777 0.0 0.0 0.0 3.825862365544777" Properties=species:S:1:pos:R:3 n_minim_iter=1 stress="-0.060952645200753636 -4.8378619591151277e-17 -7.499455054245795e-20 -4.8378619591151277e-17 -0.060952645200753636 -8.564444244460151e-18 -7.499455054245795e-20 -8.564444244460151e-18 -0.06095264520075351" pbc="T T T"
Al       0.00000000       0.00000000       0.00000000
Al       1.91293118       1.91293118       0.00000000
Al       1.91293118       0.00000000       1.91293118
Al       0.00000000       1.91293118       1.91293118
