4
Lattice="3.897390320749315 0.0 0.0 0.0 3.897390320749315 0.0 0.0 0.0 3.897390320749315" Properties=species:S:1:pos:R:3 n_minim_iter=1 stress="-0.0401706392427278 2.8011141694071265e-17 9.908777116210329e-18 2.8011141694071265e-17 -0.04017063924272778 -3.770967789760155e-17 9.908777116210329e-18 -3.770967789760155e-17 -0.040170639242727874" pbc="T T T"
Al       0.00000000       0.00000000       0.00000000
Al       1.94869516       1.94869516       0.00000000
Al       1.94869516       0.00000000       1.94869516
Al       0.00000000       1.94869516       1.94869516
