4
Lattice="4.033059350436209 0.0 0.0 0.0 4.033059350436209 0.0 0.0 0.0 4.033059350436209" Properties=species:S:1:pos:R:3 n_minim_iter=1 stress="0.019348960981006472 1.6026836879217308e-18 3.3913869420911955e-18 1.6026836879217308e-18 0.019348960981006434 1.1239052778423398e-19 3.3913869420911955e-18 1.1239052778423398e-19 0.01934896098100646" pbc="T T T"
Al       0.00000000       0.00000000       0.00000000
Al       2.01652968       2.01652968       0.00000000
Al       2.01652968       0.00000000       2.01652968
Al       0.00000000       2.01652968       2.01652968
