4
Lattice="3.966384965361551 0.0 0.0 0.0 3.966384965361551 0.0 0.0 0.0 3.966384965361551" Properties=species:S:1:pos:R:3 n_minim_iter=1 stress="-0.008955654667581154 1.5038000692996592e-17 2.1137154888191858e-18 1.5038000692996592e-17 -0.008955654667581124 3.130068752686342e-17 2.1137154888191858e-18 3.130068752686342e-17 -0.008955654667581097" pbc="T T T"
Al       0.00000000       0.00000000       0.00000000
Al       1.98319248       1.98319248       0.00000000
Al       1.98319248       0.00000000       1.98319248
Al       0.00000000       1.98319248       1.98319248
