4
Lattice="3.7515549107338066 0.0 0.0 0.0 3.7515549107338066 0.0 0.0 0.0 3.7515549107338066" Properties=species:S:1:pos:R:3 n_minim_iter=1 stress="-0.13875753955040424 2.0432869202542586e-17 8.865482726714878e-19 2.0432869202542586e-17 -0.13875753955040426 4.217710724025051e-18 8.865482726714878e-19 4.217710724025051e-18 -0.13875753955040443" pbc="T T T"
Al       0.00000000       0.00000000       0.00000000
Al       1.87577746       1.87577746       0.00000000
Al       1.87577746       0.00000000       1.87577746
Al       0.00000000       1.87577746       1.87577746
