4
Lattice="4.065585427259414 0.0 0.0 0.0 4.065585427259414 0.0 0.0 0.0 4.065585427259414" Properties=species:S:1:pos:R:3 n_minim_iter=1 stress="0.018364756814072045 1.7157625032652663e-17 3.602355624476979e-18 1.7157625032652663e-17 0.018364756814072018 1.3286605113253752e-17 3.602355624476979e-18 1.3286605113253752e-17 0.018364756814071775" pbc="T T T"
Al       0.00000000       0.00000000       0.00000000
Al       2.03279271       2.03279271       0.00000000
Al       2.03279271       0.00000000       2.03279271
Al       0.00000000       2.03279271       2.03279271
