4
Lattice="4.220908588980298 0.0 0.0 0.0 4.220908588980298 0.0 0.0 0.0 4.220908588980298" Properties=species:S:1:pos:R:3 n_minim_iter=1 stress="0.06066657786605494 -5.326078916293741e-18 8.761440323208706e-20 -5.326078916293741e-18 0.060666577866054894 -5.2235302945817825e-18 8.761440323208706e-20 -5.2235302945817825e-18 0.06066657786605546" pbc="T T T"
Al       0.00000000       0.00000000       0.00000000
Al       2.11045429       2.11045429       0.00000000
Al       2.11045429       0.00000000       2.11045429
Al       0.00000000       2.11045429       2.11045429
