4
Lattice="3.789072948743637 0.0 0.0 0.0 3.789072948743637 0.0 0.0 0.0 3.789072948743637" Properties=species:S:1:pos:R:3 n_minim_iter=1 stress="-0.1093335632933869 2.9104512740881077e-17 8.971109729086126e-18 2.9104512740881077e-17 -0.10933356329338693 1.1846503149363686e-17 8.971109729086126e-18 1.1846503149363686e-17 -0.10933356329338671" pbc="T T T"
Al       0.00000000       0.00000000       0.00000000
Al       1.89453647       1.89453647       0.00000000
Al       1.89453647       0.00000000       1.89453647
Al       0.00000000       1.89453647       1.89453647
