4
Lattice="4.129120461825467 0.0 0.0 0.0 4.129120461825467 0.0 0.0 0.0 4.129120461825467" Properties=species:S:1:pos:R:3 n_minim_iter=1 stress="0.03719809227336454 2.0174417925009995e-17 -7.635305146507194e-18 2.0174417925009995e-17 0.03719809227336454 1.2699070036125373e-17 -7.635305146507194e-18 1.2699070036125373e-17 0.03719809227336467" pbc="T T T"
Al       0.00000000       0.00000000       0.00000000
Al       2.06456023       2.06456023       0.00000000
Al       2.06456023       0.00000000       2.06456023
Al       0.00000000       2.06456023       2.06456023
