4
Lattice="3.6741811000284557 0.0 0.0 0.0 3.6741811000284557 0.0 0.0 0.0 3.6741811000284557" Properties=species:S:1:pos:R:3 n_minim_iter=1 stress="-0.2145537639098013 -1.378640831399363e-17 1.7565738523279047e-17 -1.378640831399363e-17 -0.21455376390980116 -1.0431074127219407e-17 1.7565738523279047e-17 -1.0431074127219407e-17 -0.21455376390980077" pbc="T T T"
Al       0.00000000       0.00000000       0.00000000
Al       1.83709055       1.83709055       0.00000000
Al       1.83709055       0.00000000       1.83709055
Al       0.00000000       1.83709055       1.83709055
