2
Lattice="2.9213179737577 6.568502190020137e-68 -5.550944592830348e-51 -1.3145062883235747e-67 2.9213179737577 -3.461073090769783e-17 7.999231781100537e-51 4.98760623555078e-17 4.209787935654329" Properties=species:S:1:pos:R:3:tags:I:1 spacegroup="P 1" unit_cell=conventional n_minim_iter=1 energy=-1704.0106890569134 free_energy=-1704.0106890569134 pbc="T T T"
Ti       1.46065899       1.46065899       2.10489397        0
Al       0.00000000       0.00000000       0.00000001        1
