2
Lattice="2.7684257189407084 6.224728208678849e-68 -5.2604262573441437e-51 4.857553068058951e-83 2.7684257189407084 -3.2799318135491e-17 -1.600755541390167e-101 -4.7207795497490234e-17 3.9894613653989057" Properties=species:S:1:pos:R:3:tags:I:1 spacegroup="P 1" unit_cell=conventional n_minim_iter=2 pbc="T T T"
Ti       1.38421286       1.38421286       1.99473069        0
Al      -0.00000000      -0.00000000       0.00000000        1
