8
Lattice="5.74374809268352 5.945642299611383e-17 -3.3976402944276473e-48 -2.87187404634176 4.974231761202344 2.300621639516017e-47 2.742285128545414e-48 -1.9857975047796824e-47 4.635863014254267" Properties=species:S:1:pos:R:3:tags:I:1 spacegroup="P 1" unit_cell=conventional n_minim_iter=1 energy=-9783.867488868374 free_energy=-9783.867488868374 pbc="T T T"
Ti       2.87187405       3.36126432       1.15896575        0
Ti      -1.47499895       4.16775053       3.47689726        1
Ti       1.47499896       4.16775053       3.47689726        2
Ti       1.39687509       0.80649119       1.15896575        3
Ti       4.34687301       0.80649119       1.15896575        4
Ti       0.00000000       1.61297740       3.47689726        5
Al       0.00000000       3.31615949       1.15896575        6
Al       2.87187405       1.65808223       3.47689726        7
8
Lattice="5.769288881747238 4.439397049321841e-17 -4.245344890535048e-48 -2.884644440873619 4.996350733364226 2.537978208611652e-47 9.35622344854621e-49 -2.299337167342779e-47 4.594907702804499" Properties=species:S:1:pos:R:3:tags:I:1 spacegroup="P 1" unit_cell=conventional n_minim_iter=2 stress="0.005983798245353535 7.502968403934715e-17 8.861677621616117e-17 7.502968403934715e-17 0.0059837982453551436 -4.624467850204091e-17 8.861677621616117e-17 -4.624467850204091e-17 0.005823092859361509" pbc="T T T"
Ti       2.88464445       3.37661619       1.14872692        0
Ti      -1.48190884       4.18648596       3.44618077        1
Ti       1.48190885       4.18648596       3.44618077        2
Ti       1.40273560       0.80987477       1.14872692        3
Ti       4.36655330       0.80987477       1.14872692        4
Ti       0.00000001       1.61974454       3.44618077        5
Al       0.00000001       3.33090549       1.14872692        6
Al       2.88464445       1.66545525       3.44618077        7
8
Lattice="5.769547043077751 5.3772058476790865e-17 -2.0843608913193856e-48 -2.8847735215388757 4.996574307634723 2.537469947979475e-47 -3.383610294439132e-49 -2.3732623306434034e-47 4.594496509018193" Properties=species:S:1:pos:R:3:tags:I:1 spacegroup="P 1" unit_cell=conventional n_minim_iter=3 stress="0.004979410413394562 -7.444841837724144e-17 4.2027017214051953e-16 -7.444841837724144e-17 0.004979410413395742 1.9918765083480073e-16 4.2027017214051953e-16 1.9918765083480073e-16 0.004830489455260069" pbc="T T T"
Ti       2.88477353       3.38300162       1.14862412        0
Ti      -1.48737425       4.18979046       3.44587238        1
Ti       1.48737426       4.18979046       3.44587238        2
Ti       1.39739927       0.80679385       1.14862412        3
Ti       4.37214778       0.80679385       1.14862412        4
Ti       0.00000001       1.61358269       3.44587238        5
Al       0.00000001       3.33105454       1.14862412        6
Al       2.88477353       1.66552977       3.44587238        7
8
Lattice="5.769440093154968 3.0477041988449206e-17 -4.153036744427292e-48 -2.884720046577484 4.9964816862846595 2.497675677738278e-47 -3.799007782133307e-49 -2.357768371021557e-47 4.594666849846203" Properties=species:S:1:pos:R:3:tags:I:1 spacegroup="P 1" unit_cell=conventional n_minim_iter=4 stress="0.004695952759827291 3.668190338998437e-16 2.0968490976159967e-16 3.668190338998437e-16 0.004695952759828471 -2.457805830931037e-16 2.0968490976159967e-16 -2.457805830931037e-16 0.004697670909705849" pbc="T T T"
Ti       2.88472005       3.38471419       1.14866671        0
Ti      -1.48888412       4.19060044       3.44600013        1
Ti       1.48888413       4.19060044       3.44600013        2
Ti       1.39583593       0.80589125       1.14866671        3
Ti       4.37360417       0.80589125       1.14866671        4
Ti       0.00000001       1.61177749       3.44600013        5
Al       0.00000001       3.33099279       1.14866671        6
Al       2.88472005       1.66549890       3.44600013        7
