8
Lattice="5.208502944797036 2.0157517603621278e-17 -2.455102647733705e-47 -2.604251472398518 4.510695865880291 6.692106517126931e-47 2.0092321240974003e-47 -5.163981093842044e-47 4.262588142618964" Properties=species:S:1:pos:R:3:tags:I:1 spacegroup="P 1" unit_cell=conventional n_minim_iter=1 energy=-9780.842726161582 free_energy=-9780.842726161582 pbc="T T T"
Ti       2.60425148       2.99430183       1.06564703        0
Ti      -1.29101180       3.75250111       3.19694110        1
Ti       1.29101181       3.75250111       3.19694110        2
Ti       1.31323967       0.75820379       1.06564703        3
Ti       3.89526329       0.75820379       1.06564703        4
Ti       0.00000000       1.51640306       3.19694110        5
Al       0.00000000       3.00713509       1.06564703        6
Al       2.60425148       1.50356980       3.19694110        7
8
Lattice="5.201167985355788 1.9864093852583623e-17 -2.7434102485058013e-47 -2.600583992677894 4.504343604668441 6.342677769938964e-47 1.8048324325169402e-47 -5.135735339683409e-47 4.274619270104742" Properties=species:S:1:pos:R:3:tags:I:1 spacegroup="P 1" unit_cell=conventional n_minim_iter=2 stress="-0.3575405238136736 1.0657629700476971e-15 5.683120806795332e-17 1.0657629700476971e-15 -0.35754052381368473 2.5990622843229914e-16 5.683120806795332e-17 2.5990622843229914e-16 -0.3552751214862892" pbc="T T T"
Ti       2.60058400       2.98889248       1.06865482        0
Ti      -1.28816092       3.74662030       3.20596445        1
Ti       1.28816093       3.74662030       3.20596445        2
Ti       1.31242308       0.75773232       1.06865482        3
Ti       3.88874492       0.75773232       1.06865482        4
Ti       0.00000000       1.51546014       3.20596445        5
Al       0.00000000       3.00290024       1.06865482        6
Al       2.60058400       1.50145238       3.20596445        7
8
Lattice="5.203083568135615 2.271596625410896e-17 -2.872932480281029e-47 -2.6015417840678077 4.506002548018823 5.317160403995408e-47 1.9430532242452975e-47 -5.2138654332833465e-47 4.2714723363196505" Properties=species:S:1:pos:R:3:tags:I:1 spacegroup="P 1" unit_cell=conventional n_minim_iter=3 stress="-0.35696382422766554 -1.5592282879146996e-16 -6.577085318954368e-16 -1.5592282879146996e-16 -0.3569638242276736 -1.7574049081884438e-17 -6.577085318954368e-16 -1.7574049081884438e-17 -0.35631873635948774" pbc="T T T"
Ti       2.60154179       2.98876125       1.06786808        0
Ti      -1.28756837       3.74738415       3.20360425        1
Ti       1.28756838       3.74738415       3.20360425        2
Ti       1.31397342       0.75862741       1.06786808        3
Ti       3.88911016       0.75862741       1.06786808        4
Ti       0.00000000       1.51725032       3.20360425        5
Al       0.00000000       3.00400621       1.06786808        6
Al       2.60154179       1.50200536       3.20360425        7
8
Lattice="5.203754378520245 2.809792779533549e-17 -2.1883317331147756e-47 -2.6018771892601227 4.506583486853034 7.372709909442518e-47 2.100105461678708e-47 -4.798247800080727e-47 4.2703711454839635" Properties=species:S:1:pos:R:3:tags:I:1 spacegroup="P 1" unit_cell=conventional n_minim_iter=4 stress="-0.3566027555766592 -3.2666096550450997e-16 -2.0705519962041474e-15 -3.2666096550450997e-16 -0.3566027555766453 1.595809802289045e-15 -2.0705519962041474e-15 1.595809802289045e-15 -0.3566365100054159" pbc="T T T"
Ti       2.60187719       2.98813580       1.06759278        0
Ti      -1.28685901       3.74736190       3.20277836        1
Ti       1.28685901       3.74736190       3.20277836        2
Ti       1.31501818       0.75923061       1.06759278        3
Ti       3.88873620       0.75923061       1.06759278        4
Ti       0.00000000       1.51845671       3.20277836        5
Al       0.00000000       3.00439350       1.06759278        6
Al       2.60187719       1.50219901       3.20277836        7
