2
Lattice="2.648019189709125 0.0 0.0 0.0 2.648019189709125 0.0 0.0 0.0 3.817052765788257" Properties=species:S:1:pos:R:3:tags:I:1 spacegroup="P 1" unit_cell=conventional n_minim_iter=1 energy=-1704.059352719237 free_energy=-1704.059352719237 pbc="T T T"
Ti       1.32400959       1.32400959       1.90852639        0
Al       0.00000000       0.00000000       0.00000000        1
