2
Lattice="2.6730019782424796 0.0 0.0 0.0 2.6730019782424796 0.0 0.0 0.0 3.853064824325801" Properties=species:S:1:pos:R:3:tags:I:1 spacegroup="P 1" unit_cell=conventional n_minim_iter=1 energy=-1704.1503779020773 free_energy=-1704.1503779020773 pbc="T T T"
Ti       1.33650099       1.33650099       1.92653242        0
Al       0.00000000       0.00000000       0.00000000        1
