2
Lattice="2.5700906363673792 0.0 0.0 0.0 2.5700906363673792 0.0 0.0 0.0 3.7047207248336513" Properties=species:S:1:pos:R:3:tags:I:1 spacegroup="P 1" unit_cell=conventional n_minim_iter=1 energy=-1703.6051422894693 free_energy=-1703.6051422894693 pbc="T T T"
Ti       1.28504532       1.28504532       1.85236037        0
Al       0.00000000       0.00000000       0.00000000        1
