2
Lattice="2.7914277966113374 0.0 0.0 0.0 2.7914277966113374 0.0 0.0 0.0 4.023772649745767" Properties=species:S:1:pos:R:3:tags:I:1 spacegroup="P 1" unit_cell=conventional n_minim_iter=2 pbc="T T T"
Ti       1.39571390       1.39571390       2.01188633        0
Al       0.00000000       0.00000000       0.00000000        1
