4
Lattice="3.8619575384225184 0.0 0.0 0.0 3.8619575384225184 0.0 0.0 0.0 3.8619575384225184" Properties=species:S:1:pos:R:3 n_minim_iter=1 stress="-0.06094590242655684 -3.929455378496646e-17 7.981050301549162e-18 -3.929455378496646e-17 -0.06094590242655684 -5.266662636483408e-18 7.981050301549162e-18 -5.266662636483408e-18 -0.06094590242655672" pbc="T T T"
Al       0.00000000       0.00000000       0.00000000
Al       1.93097877       1.93097877       0.00000000
Al       1.93097877       0.00000000       1.93097877
Al       0.00000000       1.93097877       1.93097877
