4
Lattice="3.825862365544777 0.0 0.0 0.0 3.825862365544777 0.0 0.0 0.0 3.825862365544777" Properties=species:S:1:pos:R:3 n_minim_iter=1 stress="-0.08297442366746278 1.466711052134729e-17 -1.821233895294577e-17 1.466711052134729e-17 -0.08297442366746278 6.5052130349130335e-18 -1.821233895294577e-17 6.5052130349130335e-18 -0.08297442366746305" pbc="T T T"
Al       0.00000000       0.00000000       0.00000000
Al       1.91293118       1.91293118       0.00000000
Al       1.91293118       0.00000000       1.91293118
Al       0.00000000       1.91293118       1.91293118
