4
Lattice="3.6342411856642793 0.0 0.0 0.0 3.6342411856642793 0.0 0.0 0.0 3.6342411856642793" Properties=species:S:1:pos:R:3 n_minim_iter=1 stress="-0.27915250366462735 -3.007853090668167e-17 9.862543943162495e-18 -3.007853090668167e-17 -0.2791525036646272 1.328147661294743e-17 9.862543943162495e-18 1.328147661294743e-17 -0.2791525036646265" pbc="T T T"
Al       0.00000000       0.00000000       0.00000000
Al       1.81712059       1.81712059       0.00000000
Al       1.81712059       0.00000000       1.81712059
Al       0.00000000       1.81712059       1.81712059
