4
Lattice="3.7515549107338066 0.0 0.0 0.0 3.7515549107338066 0.0 0.0 0.0 3.7515549107338066" Properties=species:S:1:pos:R:3 n_minim_iter=1 stress="-0.10810566716034843 4.383038649151826e-18 1.6540551782507978e-17 4.383038649151826e-18 -0.1081056671603485 1.8686543325779597e-17 1.6540551782507978e-17 1.8686543325779597e-17 -0.10810566716034853" pbc="T T T"
Al       0.00000000       0.00000000       0.00000000
Al       1.87577746       1.87577746       0.00000000
Al       1.87577746       0.00000000       1.87577746
Al       0.00000000       1.87577746       1.87577746
