4
Lattice="3.6741811000284557 0.0 0.0 0.0 3.6741811000284557 0.0 0.0 0.0 3.6741811000284557" Properties=species:S:1:pos:R:3 n_minim_iter=1 stress="-0.21939136043044996 1.0762660655230832e-17 1.6961453782191632e-17 1.0762660655230832e-17 -0.21939136043044993 5.630856444198909e-18 1.6961453782191632e-17 5.630856444198909e-18 -0.21939136043044957" pbc="T T T"
Al       0.00000000       0.00000000       0.00000000
Al       1.83709055       1.83709055       0.00000000
Al       1.83709055       0.00000000       1.83709055
Al       0.00000000       1.83709055       1.83709055
