4
Lattice="3.713271066890223 0.0 0.0 0.0 3.713271066890223 0.0 0.0 0.0 3.713271066890223" Properties=species:S:1:pos:R:3 n_minim_iter=1 stress="-0.13356079645120872 -2.2352799795301847e-18 2.763601679596819e-18 -2.2352799795301847e-18 -0.13356079645120872 -8.870745047608676e-19 2.763601679596819e-18 -8.870745047608676e-19 -0.1335607964512084" pbc="T T T"
Al       0.00000000       0.00000000       0.00000000
Al       1.85663553       1.85663553       0.00000000
Al       1.85663553       0.00000000       1.85663553
Al       0.00000000       1.85663553       1.85663553
