4
Lattice="3.825862365544777 0.0 0.0 0.0 3.825862365544777 0.0 0.0 0.0 3.825862365544777" Properties=species:S:1:pos:R:3 n_minim_iter=1 stress="-0.08064964354205824 -4.724265850282273e-18 4.028731060272577e-18 -4.724265850282273e-18 -0.08064964354205804 6.071532165918831e-18 4.028731060272577e-18 6.071532165918831e-18 -0.08064964354205859" pbc="T T T"
Al       0.00000000       0.00000000       0.00000000
Al       1.91293118       1.91293118       0.00000000
Al       1.91293118       0.00000000       1.91293118
Al       0.00000000       1.91293118       1.91293118
