4
Lattice="3.7132710668902233 0.0 0.0 0.0 3.7132710668902233 0.0 0.0 0.0 3.7132710668902233" Properties=species:S:1:pos:R:3 n_minim_iter=1 stress="-0.17176903999173448 -3.391737177905341e-17 4.113995258684496e-18 -3.391737177905341e-17 -0.17176903999173462 7.792703114739561e-19 4.113995258684496e-18 7.792703114739561e-19 -0.17176903999173415" pbc="T T T"
Al       0.00000000       0.00000000       0.00000000
Al       1.85663553       1.85663553       0.00000000
Al       1.85663553       0.00000000       1.85663553
Al       0.00000000       1.85663553       1.85663553
