4
Lattice="3.6741811000284557 0.0 0.0 0.0 3.6741811000284557 0.0 0.0 0.0 3.6741811000284557" Properties=species:S:1:pos:R:3 n_minim_iter=1 stress="-0.22167176103145667 5.924356588532732e-18 -4.5334951963560334e-18 5.924356588532732e-18 -0.22167176103145636 -8.096542030012717e-18 -4.5334951963560334e-18 -8.096542030012717e-18 -0.221671761031456" pbc="T T T"
Al       0.00000000       0.00000000       0.00000000
Al       1.83709055       1.83709055       0.00000000
Al       1.83709055       0.00000000       1.83709055
Al       0.00000000       1.83709055       1.83709055
