4
Lattice="3.7515549107338066 0.0 0.0 0.0 3.7515549107338066 0.0 0.0 0.0 3.7515549107338066" Properties=species:S:1:pos:R:3 n_minim_iter=1 stress="-0.10487628265279288 -2.796659913563037e-17 -6.021509073194949e-18 -2.796659913563037e-17 -0.10487628265279274 2.149271365456561e-17 -6.021509073194949e-18 2.149271365456561e-17 -0.10487628265279281" pbc="T T T"
Al       0.00000000       0.00000000       0.00000000
Al       1.87577746       1.87577746       0.00000000
Al       1.87577746       0.00000000       1.87577746
Al       0.00000000       1.87577746       1.87577746
