4
Lattice="3.966384965361551 0.0 0.0 0.0 3.966384965361551 0.0 0.0 0.0 3.966384965361551" Properties=species:S:1:pos:R:3 n_minim_iter=1 stress="-0.007612758137889257 -2.3857997887950467e-17 1.606470880661042e-17 -2.3857997887950467e-17 -0.007612758137889286 -8.317051959017456e-18 1.606470880661042e-17 -8.317051959017456e-18 -0.007612758137889413" pbc="T T T"
Al       0.00000000       0.00000000       0.00000000
Al       1.98319248       1.98319248       0.00000000
Al       1.98319248       0.00000000       1.98319248
Al       0.00000000       1.98319248       1.98319248
