2
Lattice="3.016668838238223 -9.593784791779433e-16 5.140301201144806e-41 -1.5083344191191108 2.612511848719191 2.6060119368903506e-25 -2.330010192044852e-40 -4.766334509602827e-25 4.7782226953860985" Properties=species:S:1:pos:R:3 n_minim_iter=1 energy=-3187.0301815023545 free_energy=-3187.0301815023545 pbc="T T T"
Ti       0.00000000       0.00000000       0.00000000
Ti       0.00000000       1.74167457       2.38911135
