4
Lattice="4.821307399737079 0.20954359632260847 9.614815406909342e-13 2.258565550579452 4.264715138817018 2.5435493507817822e-12 -3.5399364751586924 -2.237129367571018 2.398544455729699" Properties=species:S:1:pos:R:3:tags:I:1 spacegroup="P 1" unit_cell=conventional n_minim_iter=1 energy=-1921.6708947513566 free_energy=-1921.6708947513566 pbc="T T T"
Ti       0.00000000       0.00000000       0.00000000        0
Al       3.53993648       2.23712937       0.00000000        1
Al       2.41065370       0.10477180       1.19927223        2
Al       1.12928278       2.13235757       1.19927223        3
4
Lattice="4.771083399110265 0.15282964831696721 9.241971719838148e-13 2.1857848408149936 4.243693948947498 2.520085300279357e-12 -3.4784341199630595 -2.1982617986334474 2.4196559343046884" Properties=species:S:1:pos:R:3:tags:I:1 spacegroup="P 1" unit_cell=conventional n_minim_iter=2 stress="-0.6077065101767374 -9.915238215656247e-05 -8.775572529118044e-17 -9.915238215656247e-05 -0.6076122769588584 3.5028963001235335e-16 -8.775572529118044e-17 3.5028963001235335e-16 -0.607549615747975" pbc="T T T"
Ti       0.00000000       0.00000000       0.00000000        0
Al       3.47843412       2.19826180       0.00000000        1
Al       2.38554170       0.07641482       1.20982797        2
Al       1.09289242       2.12184697       1.20982797        3
