4
Lattice="5.012200493615271 0.11590389974459975 9.45361944924608e-13 2.2559205378886573 4.477321747306678 2.6435590833912477e-12 -3.634060515752421 -2.296612823526932 2.5796823852625885" Properties=species:S:1:pos:R:3:tags:I:1 spacegroup="P 1" unit_cell=conventional n_minim_iter=1 energy=-1924.0684216518348 free_energy=-1924.0684216518348 pbc="T T T"
Ti       0.00000000       0.00000000       0.00000000        0
Al       3.63406052       2.29661282       0.00000000        1
Al       2.50610025       0.05795195       1.28984119        2
Al       1.12796027       2.23866087       1.28984119        3
