4
Lattice="4.577008684753988 0.042843440458516284 8.355042769670253e-13 2.003147428566486 4.115609850329746 2.4257877374400995e-12 -3.2900780566606658 -2.0792266453953427 2.4089514314036653" Properties=species:S:1:pos:R:3:tags:I:1 spacegroup="P 1" unit_cell=conventional n_minim_iter=1 energy=-1919.55481029372 free_energy=-1919.55481029372 pbc="T T T"
Ti       0.00000000       0.00000000       0.00000000        0
Al       3.29007806       2.07922665       0.00000000        1
Al       2.28850434       0.02142172       1.20447572        2
Al       1.00157371       2.05780493       1.20447572        3
4
Lattice="4.461224363712757 -0.09534716352276446 7.455883111070111e-13 1.8286377490796324 4.070343706324705 2.3721403106559404e-12 -3.144931056396635 -1.9874982714022098 2.4639141983156265" Properties=species:S:1:pos:R:3:tags:I:1 spacegroup="P 1" unit_cell=conventional n_minim_iter=2 stress="-0.6172896473969666 0.010797591220015331 7.800990379473658e-15 0.010797591220015331 -0.6275515467469904 4.8747240537775635e-15 7.800990379473658e-15 4.8747240537775635e-15 -0.6343752873951108" pbc="T T T"
Ti       0.00000000       0.00000000       0.00000000        0
Al       3.14493106       1.98749827       0.00000000        1
Al       2.23061218      -0.04767358       1.23195710        2
Al       0.91431887       2.03517185       1.23195710        3
4
Lattice="4.366500781187282 -0.21282614376823436 6.696681568597984e-13 1.6818742702118832 4.035210400806836 2.3278171088920696e-12 -3.0241875257000297 -1.9111921285205655 2.512619847263365" Properties=species:S:1:pos:R:3:tags:I:1 spacegroup="P 1" unit_cell=conventional n_minim_iter=3 stress="-0.5227274073267442 0.0017307293010782126 1.2155449860714091e-15 0.0017307293010782126 -0.5243722714013239 4.92897323023106e-16 1.2155449860714091e-15 4.92897323023106e-16 -0.525466038301926" pbc="T T T"
Ti       0.00000000       0.00000000       0.00000000        0
Al       3.02418753       1.91119213       0.00000000        1
Al       2.18325039      -0.10641307       1.25630992        2
Al       0.84093714       2.01760520       1.25630992        3
