4
Lattice="4.8710151038848455 0.2117039918810062 9.729433193430243e-13 2.281851373050068 4.308684373885162 2.5705542517786247e-12 -3.5764332384678874 -2.2601941828843017 2.4232734614340803" Properties=species:S:1:pos:R:3:tags:I:1 spacegroup="P 1" unit_cell=conventional n_minim_iter=1 energy=-1922.5011500466792 free_energy=-1922.5011500466792 pbc="T T T"
Ti       0.00000000       0.00000000       0.00000000        0
Al       3.57643324       2.26019418       0.00000000        1
Al       2.43550755       0.10585200       1.21163673        2
Al       1.14092569       2.15434219       1.21163673        3
