8
Lattice="5.660683533426767 2.351412782970743e-16 2.3457140886589492e-48 -2.8303417667133837 4.902295742731838 -2.1928970023226944e-48 -1.9177658909167883e-48 9.629573819644184e-49 4.627957794245294" Properties=species:S:1:pos:R:3:tags:I:1 spacegroup="P 1" unit_cell=conventional n_minim_iter=1 energy=-9783.925647002281 free_energy=-9783.925647002281 pbc="T T T"
Ti       2.83034177       3.29726652       1.15698945        0
Ti      -1.44034143       4.09978359       3.47096834        1
Ti       1.44034144       4.09978359       3.47096834        2
Ti       1.39000033       0.80252197       1.15698945        3
Ti       4.27068321       0.80252197       1.15698945        4
Ti       0.00000000       1.60503903       3.47096834        5
Al       0.00000000       3.26820207       1.15698945        6
Al       2.83034177       1.63410349       3.47096834        7
8
Lattice="5.68089271464353 2.880038042295373e-16 2.3619108735266228e-48 -2.840446357321765 4.919797407055238 -2.1720662580992076e-48 -1.877677121549258e-48 1.149460593188452e-48 4.595089410440972" Properties=species:S:1:pos:R:3:tags:I:1 spacegroup="P 1" unit_cell=conventional n_minim_iter=2 stress="0.009606818814077987 -1.0726922244896087e-16 -1.1463541795805145e-17 -1.0726922244896087e-16 0.009606818814077656 -1.956298138642836e-17 -1.1463541795805145e-17 -1.956298138642836e-17 0.009379167595496257" pbc="T T T"
Ti       2.84044636       3.30947295       1.14877235        0
Ti      -1.44586020       4.11463764       3.44631706        1
Ti       1.44586021       4.11463764       3.44631706        2
Ti       1.39458616       0.80516962       1.14877235        3
Ti       4.28630656       0.80516962       1.14877235        4
Ti       0.00000000       1.61033431       3.44631706        5
Al       0.00000000       3.27986986       1.14877235        6
Al       2.84044636       1.63993739       3.44631706        7
8
Lattice="5.680514934077406 3.116288602677463e-16 3.151227212938242e-48 -2.840257467038703 4.919470239487916 -1.534155121698137e-51 -1.836860756433871e-48 1.9892952157374295e-48 4.59570062024251" Properties=species:S:1:pos:R:3:tags:I:1 spacegroup="P 1" unit_cell=conventional n_minim_iter=3 stress="0.008828123625454244 -9.84895977740133e-17 3.181490565609561e-17 -9.84895977740133e-17 0.008828123625455158 -7.205118658253766e-18 3.181490565609561e-17 -7.205118658253766e-18 0.008747303276046298" pbc="T T T"
Ti       2.84025747       3.31499343       1.14892515        0
Ti      -1.45073552       4.11723430       3.44677546        1
Ti       1.45073553       4.11723430       3.44677546        2
Ti       1.38952195       0.80224579       1.14892515        3
Ti       4.29099300       0.80224579       1.14892515        4
Ti       0.00000000       1.60448666       3.44677546        5
Al       0.00000000       3.27965175       1.14892515        6
Al       2.84025747       1.63982834       3.44677546        7
8
Lattice="5.680351771634399 3.004932952207513e-16 2.757239190419065e-48 -2.8401758858171995 4.919328936667329 3.936051439214189e-49 -1.8367340923727463e-48 8.735275877675583e-49 4.595964637873798" Properties=species:S:1:pos:R:3:tags:I:1 spacegroup="P 1" unit_cell=conventional n_minim_iter=4 stress="0.00856151042121568 3.314028267850541e-16 1.194744267919538e-16 3.314028267850541e-16 0.008561510421216095 -2.0262355955888198e-16 1.194744267919538e-16 -2.0262355955888198e-16 0.008568455425944413" pbc="T T T"
Ti       2.84017589       3.31678714       1.14899116        0
Ti      -1.45232971       4.11806050       3.44697348        1
Ti       1.45232972       4.11806050       3.44697348        2
Ti       1.38784618       0.80127829       1.14899116        3
Ti       4.29250560       0.80127829       1.14899116        4
Ti       0.00000000       1.60255165       3.44697348        5
Al       0.00000000       3.27955755       1.14899116        6
Al       2.84017589       1.63978124       3.44697348        7
