8
Lattice="5.267958657102677 2.1524653924647008e-16 9.085528274353638e-48 -2.6339793285513387 4.562186023137075 -7.603533613624383e-48 -7.417889077975936e-48 2.8855602095685315e-48 4.301030364525585" Properties=species:S:1:pos:R:3:tags:I:1 spacegroup="P 1" unit_cell=conventional n_minim_iter=1 energy=-9781.715426288367 free_energy=-9781.715426288367 pbc="T T T"
Ti       2.63397933       3.02904731       1.07525759        0
Ti      -1.30623830       3.79561895       3.22577277        1
Ti       1.30623831       3.79561895       3.22577277        2
Ti       1.32774103       0.76657620       1.07525759        3
Ti       3.94021764       0.76657620       1.07525759        4
Ti       0.00000000       1.53314784       3.22577277        5
Al       0.00000000       3.04146191       1.07525759        6
Al       2.63397933       1.52073324       3.22577277        7
8
Lattice="5.263226545767129 2.1332368243948509e-16 9.07445852848845e-48 -2.6316132728835644 4.558087894506953 -7.602520260350584e-48 -7.433608316510092e-48 2.8838965574132135e-48 4.308767863160142" Properties=species:S:1:pos:R:3:tags:I:1 spacegroup="P 1" unit_cell=conventional n_minim_iter=2 stress="-0.30187920966359916 -5.810400804803589e-16 1.525858743991978e-16 -5.810400804803589e-16 -0.30187920966359993 3.031232510335474e-16 1.525858743991978e-16 3.031232510335474e-16 -0.2991207618363223" pbc="T T T"
Ti       2.63161328       3.02506375       1.07719196        0
Ti      -1.30397146       3.79157810       3.23157590        1
Ti       1.30397147       3.79157810       3.23157590        2
Ti       1.32764181       0.76651892       1.07719196        3
Ti       3.93558474       0.76651892       1.07719196        4
Ti       0.00000000       1.53303327       3.23157590        5
Al       0.00000000       3.03872982       1.07719196        6
Al       2.63161328       1.51936719       3.23157590        7
8
Lattice="5.265691013557083 2.127244620737145e-16 9.073418789261837e-48 -2.6328455067785415 4.560222186219862 -7.572925172011058e-48 -7.425296893949057e-48 2.885108833728144e-48 4.304735596680168" Properties=species:S:1:pos:R:3:tags:I:1 spacegroup="P 1" unit_cell=conventional n_minim_iter=3 stress="-0.30083541250403095 3.9971674740975846e-16 1.9263408916162391e-16 3.9971674740975846e-16 -0.30083541250402923 -1.8433693956526724e-17 1.9263408916162391e-16 -1.8433693956526724e-17 -0.3005586607951714" pbc="T T T"
Ti       2.63284551       3.02464324       1.07618390        0
Ti      -1.30299117       3.79243500       3.22855170        1
Ti       1.30299118       3.79243500       3.22855170        2
Ti       1.32985433       0.76779632       1.07618390        3
Ti       3.93583669       0.76779632       1.07618390        4
Ti       0.00000000       1.53558807       3.22855170        5
Al       0.00000000       3.04015269       1.07618390        6
Al       2.63284551       1.52007863       3.22855170        7
