8
Lattice="5.750847869999999 0.0 0.0 -2.8754239349999997 4.9803803487196285 0.0 0.0 0.0 4.65528205" Properties=species:S:1:pos:R:3:tags:I:1 spacegroup="P 1" unit_cell=conventional n_minim_iter=1 energy=-9783.683603948419 free_energy=-9783.683603948419 pbc="T T T"
Ti       2.87542394       3.28996953       1.16382051        0
Ti      -1.41148090       4.13517743       3.49146154        1
Ti       1.41148091       4.13517743       3.49146154        2
Ti       1.46394303       0.84521289       1.16382051        3
Ti       4.28690485       0.84521289       1.16382051        4
Ti       0.00000000       1.69042079       3.49146154        5
Al       0.00000000       3.32025855       1.16382051        6
Al       2.87542394       1.66013177       3.49146154        7
8
Lattice="5.659961325312982 -4.811356133728661e-17 -2.4339128052146017e-50 -2.829980662656491 4.901670292158482 -9.74211452977317e-50 3.9786894407623126e-50 -1.1388580845831555e-49 4.472745829915378" Properties=species:S:1:pos:R:3:tags:I:1 spacegroup="P 1" unit_cell=conventional n_minim_iter=2 stress="0.007978520376675567 1.9067948969856335e-16 -1.7276501024272255e-16 1.9067948969856335e-16 0.007978520376676254 9.608615860657652e-17 -1.7276501024272255e-16 9.608615860657652e-17 -0.039429324109376544" pbc="T T T"
Ti       2.82998067       3.24120841       1.11818646        0
Ti      -1.39197423       4.07144180       3.35455937        1
Ti       1.39197424       4.07144180       3.35455937        2
Ti       1.43800643       0.83023830       1.11818646        3
Ti       4.22195491       0.83023830       1.11818646        4
Ti       0.00000000       1.66047170       3.35455937        5
Al       0.00000000       3.26778510       1.11818646        6
Al       2.82998067       1.63389500       3.35455937        7
8
Lattice="5.5333332669938535 -4.8660692884878034e-17 -7.772578634713358e-49 -2.7666666334969268 4.792007176822219 -1.6684573974809903e-48 -3.3264024362239535e-48 8.754365204312146e-49 4.564433378960252" Properties=species:S:1:pos:R:3:tags:I:1 spacegroup="P 1" unit_cell=conventional n_minim_iter=3 stress="-0.015510347064516889 1.9413635886647073e-17 -1.3284773344022297e-17 1.9413635886647073e-17 -0.015510347064515921 1.3832451864869746e-17 -1.3284773344022297e-17 1.3832451864869746e-17 -0.01221651886427558" pbc="T T T"
Ti       2.76666664       3.17598167       1.14110834        0
Ti      -1.36714334       3.98399682       3.42332503        1
Ti       1.36714334       3.98399682       3.42332503        2
Ti       1.39952330       0.80801995       1.14110834        3
Ti       4.13380998       0.80801995       1.14110834        4
Ti       0.00000000       1.61603510       3.42332503        5
Al       0.00000000       3.19467625       1.14110834        6
Al       2.76666664       1.59734052       3.42332503        7
8
Lattice="5.6011627906377885 2.542611322148203e-16 -6.037843386687181e-49 -2.8005813953188943 4.850749267424464 -1.7130128811128995e-48 -3.5181458813805936e-48 5.878088203526876e-49 4.605285456861811" Properties=species:S:1:pos:R:3:tags:I:1 spacegroup="P 1" unit_cell=conventional n_minim_iter=4 stress="0.0037495202359290373 2.480400147745817e-16 8.634650879194744e-18 2.480400147745817e-16 0.003749520235929009 -4.189186805826705e-17 8.634650879194744e-18 -4.189186805826705e-17 0.013998070443694617" pbc="T T T"
Ti       2.80058140       3.22218033       1.15132136        0
Ti      -1.39019512       4.03646723       3.45396409        1
Ti       1.39019513       4.03646723       3.45396409        2
Ti       1.41038628       0.81429175       1.15132136        3
Ti       4.19077652       0.81429175       1.15132136        4
Ti       0.00000000       1.62857864       3.45396409        5
Al       0.00000000       3.23383770       1.15132136        6
Al       2.80058140       1.61692128       3.45396409        7
8
Lattice="5.601798329463094 2.949201703564886e-16 1.941868506253045e-48 -2.800899164731547 4.851299660192269 -4.4422763467979907e-48 -1.908031484691049e-48 -8.741684006690887e-48 4.5566125388258785" Properties=species:S:1:pos:R:3:tags:I:1 spacegroup="P 1" unit_cell=conventional n_minim_iter=5 stress="-0.0023821893130856506 -8.382836518441135e-17 8.647674201269133e-17 -8.382836518441135e-17 -0.0023821893130865114 -8.27970888722615e-17 8.647674201269133e-17 -8.27970888722615e-17 -0.01474772552136553" pbc="T T T"
Ti       2.80089917       3.24964901       1.13915313        0
Ti      -1.41382480       4.05047676       3.41745940        1
Ti       1.41382481       4.05047676       3.41745940        2
Ti       1.38707436       0.80083261       1.13915313        3
Ti       4.21472398       0.80083261       1.13915313        4
Ti       0.00000000       1.60166036       3.41745940        5
Al       0.00000000       3.23420463       1.13915313        6
Al       2.80089917       1.61710474       3.41745940        7
8
Lattice="5.603544439196142 3.677733007397399e-16 1.8273940021289458e-48 -2.801772219598071 4.852811835578884 -3.735194356857498e-48 -2.615073310863245e-48 -9.19932258680042e-48 4.584065071971783" Properties=species:S:1:pos:R:3:tags:I:1 spacegroup="P 1" unit_cell=conventional n_minim_iter=6 stress="-0.002267817558953669 -1.2721585797955143e-16 1.1057100005387548e-16 -1.2721585797955143e-16 -0.002267817558953669 -2.5285234652154513e-16 1.1057100005387548e-16 -2.5285234652154513e-16 -0.0030891342968792004" pbc="T T T"
Ti       2.80177222       3.26095862       1.14601627        0
Ti      -1.42318269       4.05688766       3.43804880        1
Ti       1.42318270       4.05688766       3.43804880        2
Ti       1.37858953       0.79593389       1.14601627        3
Ti       4.22495492       0.79593389       1.14601627        4
Ti       0.00000000       1.59186293       3.43804880        5
Al       0.00000000       3.23521275       1.14601627        6
Al       2.80177222       1.61760880       3.43804880        7
8
Lattice="5.614282401090397 2.33213804078179e-16 2.3264860591801024e-48 -2.8071412005451983 4.862111183364178 -2.1749216282527703e-48 -1.3603758214347115e-48 -4.0957760908262687e-48 4.590022007729434" Properties=species:S:1:pos:R:3:tags:I:1 spacegroup="P 1" unit_cell=conventional n_minim_iter=7 stress="-0.0003329598839175862 5.402043810741358e-17 1.7121689964075572e-18 5.402043810741358e-17 -0.00033295988391786975 -1.1880871347299878e-16 1.7121689964075572e-18 -1.1880871347299878e-16 0.0004641532942762617" pbc="T T T"
Ti       2.80714121       3.27023853       1.14750550        0
Ti      -1.42853483       4.06617729       3.44251650        1
Ti       1.42853484       4.06617729       3.44251650        2
Ti       1.37860637       0.79594362       1.14750550        3
Ti       4.23567604       0.79594362       1.14750550        4
Ti       0.00000000       1.59188238       3.44251650        5
Al       0.00000000       3.24141232       1.14750550        6
Al       2.80714121       1.62070859       3.44251650        7
